version 2
run SinusoidalTxPowerNoGui-2-20210521-01:19:19-79587
attr beaconInterval 0.1
attr configname SinusoidalTxPowerNoGui
attr controller 2
attr datetime 20210521-01:19:19
attr experiment SinusoidalTxPowerNoGui
attr headway 0.1
attr inifile omnetpp.ini
attr iterationvars "$thermalNoise=-95, $txPower=100, $packetLossRate=0, $beaconInterval=0.1, $controller=2, $sController=\"PLOEG\", $headway=0.1, $0=2, $1=0.5, $nCars=8, $platoonSize=8, $nLanes=1, $ploegH=0.5, $leaderHeadway=1.2, $leaderSpeed=100, $packetSize=200"
attr iterationvarsf thermalNoise=-95,txPower=100,packetLossRate=0,beaconInterval=0.1,controller=2,sController=PLOEG,headway=0.1,2,0.5,nCars=8,platoonSize=8,nLanes=1,ploegH=0.5,leaderHeadway=1.2,leaderSpeed=100,packetSize=200-
attr leaderHeadway 1.2
attr leaderSpeed 100
attr measurement "$thermalNoise=-95, $txPower=100, $packetLossRate=0, $beaconInterval=0.1, $controller=2, $sController=\"PLOEG\", $headway=0.1, $0=2, $1=0.5, $nCars=8, $platoonSize=8, $nLanes=1, $ploegH=0.5, $leaderHeadway=1.2, $leaderSpeed=100, $packetSize=200"
attr nCars 8
attr nLanes 1
attr network Highway
attr packetLossRate 0
attr packetSize 200
attr platoonSize 8
attr ploegH 0.5
attr processid 79587
attr repetition 0
attr replication #0
attr resultdir results
attr runnumber 2
attr sController "\"PLOEG\""
attr seedset 0
attr thermalNoise -95
attr txPower 100
param **.coreDebug false
param **.debug false
param **.headway 0.1s
param **.numberOfCars 8
param **.numberOfCarsPerPlatoon 8
param **.numberOfLanes 1
param **.numericController 2
param **.seed 0
param **.traffic.nCars 8
param **.traffic.nLanes 1
param **.traffic.platoonInsertDistance 2m
param **.traffic.platoonInsertHeadway 0.5s
param **.traffic.platoonInsertSpeed 100kmph
param **.traffic.platoonInsertTime "1 s"
param **.traffic.platoonLeaderHeadway 1.2s
param **.traffic.platoonSize 8
param **.traffic.platooningVType "\"vtypeauto\""
param **.traffic_type "\"PlatoonsTrafficManager\""
param *.**.nic.mac1609_4.bitrate 6Mbps
param *.**.nic.mac1609_4.txPower 100mW
param *.**.nic.mac1609_4.useServiceChannel false
param *.**.nic.phy80211p.analogueModels "xmldoc(\"config.xml\")"
param *.**.nic.phy80211p.decider "xmldoc(\"config.xml\")"
param *.**.nic.phy80211p.maxTXPower 100mW
param *.**.nic.phy80211p.sensitivity -94dBm
param *.**.nic.phy80211p.thermalNoise -95dBm
param *.**.nic.phy80211p.usePropagationDelay true
param *.**.nic.phy80211p.useThermalNoise true
param *.annotations.draw false
param *.connectionManager.drawMaxIntfDist false
param *.connectionManager.maxInterfDist 2600m
param *.connectionManager.sendDirect true
param *.manager.autoShutdown true
param *.manager.configFile "\"./sumocfg/freeway.sumo.cfg\""
param *.manager.host "\"localhost\""
param *.manager.margin 25
param *.manager.moduleDisplayString "\"\""
param *.manager.moduleName "\"node\""
param *.manager.moduleType "\"org.car2x.veins.modules.application.platooning.PlatoonCar\""
param *.manager.updateInterval 0.01s
param *.manager.useGui true
param *.node[*].appl_type "\"SimplePlatooningApp\""
param *.node[*].helper.nCars 8
param *.node[*].helper.nLanes 1
param *.node[*].helper.platoonSize 8
param *.node[*].helper_type "\"PositionHelper\""
param *.node[*].mobility.x 0
param *.node[*].mobility.y 0
param *.node[*].mobility.z 1.895
param *.node[*].prot.beaconingInterval 0.1s
param *.node[*].prot.packetSize 200
param *.node[*].prot.priority 4
param *.node[*].protocol_type "\"SimplePlatooningBeaconing\""
param *.node[*].scenario.accHeadway 0.1s
param *.node[*].scenario.caccC1 0.5
param *.node[*].scenario.caccOmegaN "0.2 Hz"
param *.node[*].scenario.caccXi 1
param *.node[*].scenario.controller "\"PLOEG\""
param *.node[*].scenario.leaderHeadway 1.2s
param *.node[*].scenario.leaderOscillationFrequency "0.2 Hz"
param *.node[*].scenario.leaderSpeed 100kmph
param *.node[*].scenario.oscillationAmplitude "35 kmph"
param *.node[*].scenario.ploegH 0.5s
param *.node[*].scenario.ploegKd 0.7
param *.node[*].scenario.ploegKp 0.2
param *.node[*].scenario.startOscillating "5 s"
param *.node[*].scenario.useControllerAcceleration true
param *.node[*].scenario.useRealisticEngine false
param *.node[*].scenario_type "\"SinusoidalScenario\""
param *.node[*].unicast.packetLossRate 0
param *.obstacles.debug false
param *.playgroundSizeX 65000m
param *.playgroundSizeY 25000m
param *.playgroundSizeZ 50m
param *.world.use2D false
param *.world.useTorus false

vector 369  Highway.node[0].appl  distance  ETV
vector 370  Highway.node[0].appl  relativeSpeed  ETV
vector 371  Highway.node[0].appl  nodeId  ETV
vector 375  Highway.node[0].appl  acceleration  ETV
vector 376  Highway.node[0].appl  controllerAcceleration  ETV
vector 372  Highway.node[0].appl  speed  ETV
vector 373  Highway.node[0].appl  posx  ETV
vector 374  Highway.node[0].appl  posy  ETV
vector 392  Highway.node[1].appl  distance  ETV
vector 393  Highway.node[1].appl  relativeSpeed  ETV
vector 394  Highway.node[1].appl  nodeId  ETV
vector 398  Highway.node[1].appl  acceleration  ETV
vector 399  Highway.node[1].appl  controllerAcceleration  ETV
vector 395  Highway.node[1].appl  speed  ETV
vector 396  Highway.node[1].appl  posx  ETV
vector 397  Highway.node[1].appl  posy  ETV
vector 415  Highway.node[2].appl  distance  ETV
vector 416  Highway.node[2].appl  relativeSpeed  ETV
vector 417  Highway.node[2].appl  nodeId  ETV
vector 421  Highway.node[2].appl  acceleration  ETV
vector 422  Highway.node[2].appl  controllerAcceleration  ETV
vector 418  Highway.node[2].appl  speed  ETV
vector 419  Highway.node[2].appl  posx  ETV
vector 420  Highway.node[2].appl  posy  ETV
vector 438  Highway.node[3].appl  distance  ETV
vector 439  Highway.node[3].appl  relativeSpeed  ETV
vector 440  Highway.node[3].appl  nodeId  ETV
vector 444  Highway.node[3].appl  acceleration  ETV
vector 445  Highway.node[3].appl  controllerAcceleration  ETV
vector 441  Highway.node[3].appl  speed  ETV
vector 442  Highway.node[3].appl  posx  ETV
vector 443  Highway.node[3].appl  posy  ETV
vector 461  Highway.node[4].appl  distance  ETV
vector 462  Highway.node[4].appl  relativeSpeed  ETV
vector 463  Highway.node[4].appl  nodeId  ETV
vector 467  Highway.node[4].appl  acceleration  ETV
vector 468  Highway.node[4].appl  controllerAcceleration  ETV
vector 464  Highway.node[4].appl  speed  ETV
vector 465  Highway.node[4].appl  posx  ETV
vector 466  Highway.node[4].appl  posy  ETV
vector 484  Highway.node[5].appl  distance  ETV
vector 485  Highway.node[5].appl  relativeSpeed  ETV
vector 486  Highway.node[5].appl  nodeId  ETV
vector 490  Highway.node[5].appl  acceleration  ETV
vector 491  Highway.node[5].appl  controllerAcceleration  ETV
vector 487  Highway.node[5].appl  speed  ETV
vector 488  Highway.node[5].appl  posx  ETV
vector 489  Highway.node[5].appl  posy  ETV
vector 507  Highway.node[6].appl  distance  ETV
vector 508  Highway.node[6].appl  relativeSpeed  ETV
vector 509  Highway.node[6].appl  nodeId  ETV
vector 513  Highway.node[6].appl  acceleration  ETV
vector 514  Highway.node[6].appl  controllerAcceleration  ETV
vector 510  Highway.node[6].appl  speed  ETV
vector 511  Highway.node[6].appl  posx  ETV
vector 512  Highway.node[6].appl  posy  ETV
vector 530  Highway.node[7].appl  distance  ETV
vector 531  Highway.node[7].appl  relativeSpeed  ETV
vector 532  Highway.node[7].appl  nodeId  ETV
vector 536  Highway.node[7].appl  acceleration  ETV
vector 537  Highway.node[7].appl  controllerAcceleration  ETV
vector 533  Highway.node[7].appl  speed  ETV
vector 534  Highway.node[7].appl  posx  ETV
vector 535  Highway.node[7].appl  posy  ETV
vector 452  Highway.node[3].prot  frontDelay  ETV
vector 450  Highway.node[3].prot  frontDelayId  ETV
vector 429  Highway.node[2].prot  frontDelay  ETV
vector 427  Highway.node[2].prot  frontDelayId  ETV
vector 544  Highway.node[7].prot  frontDelay  ETV
vector 542  Highway.node[7].prot  frontDelayId  ETV
vector 405  Highway.node[1].prot  leaderDelay  ETV
vector 403  Highway.node[1].prot  leaderDelayId  ETV
vector 406  Highway.node[1].prot  frontDelay  ETV
vector 404  Highway.node[1].prot  frontDelayId  ETV
vector 428  Highway.node[2].prot  leaderDelay  ETV
vector 426  Highway.node[2].prot  leaderDelayId  ETV
vector 451  Highway.node[3].prot  leaderDelay  ETV
vector 449  Highway.node[3].prot  leaderDelayId  ETV
vector 474  Highway.node[4].prot  leaderDelay  ETV
vector 472  Highway.node[4].prot  leaderDelayId  ETV
vector 497  Highway.node[5].prot  leaderDelay  ETV
vector 495  Highway.node[5].prot  leaderDelayId  ETV
vector 520  Highway.node[6].prot  leaderDelay  ETV
vector 518  Highway.node[6].prot  leaderDelayId  ETV
vector 543  Highway.node[7].prot  leaderDelay  ETV
vector 541  Highway.node[7].prot  leaderDelayId  ETV
vector 498  Highway.node[5].prot  frontDelay  ETV
vector 496  Highway.node[5].prot  frontDelayId  ETV
vector 475  Highway.node[4].prot  frontDelay  ETV
vector 473  Highway.node[4].prot  frontDelayId  ETV
vector 521  Highway.node[6].prot  frontDelay  ETV
vector 519  Highway.node[6].prot  frontDelayId  ETV
vector 377  Highway.node[0].prot  nodeId  ETV
vector 378  Highway.node[0].prot  busyTime  ETV
vector 379  Highway.node[0].prot  collisions  ETV
vector 400  Highway.node[1].prot  nodeId  ETV
vector 401  Highway.node[1].prot  busyTime  ETV
vector 402  Highway.node[1].prot  collisions  ETV
vector 423  Highway.node[2].prot  nodeId  ETV
vector 424  Highway.node[2].prot  busyTime  ETV
vector 425  Highway.node[2].prot  collisions  ETV
vector 446  Highway.node[3].prot  nodeId  ETV
vector 447  Highway.node[3].prot  busyTime  ETV
vector 448  Highway.node[3].prot  collisions  ETV
vector 469  Highway.node[4].prot  nodeId  ETV
vector 470  Highway.node[4].prot  busyTime  ETV
vector 471  Highway.node[4].prot  collisions  ETV
vector 492  Highway.node[5].prot  nodeId  ETV
vector 493  Highway.node[5].prot  busyTime  ETV
vector 494  Highway.node[5].prot  collisions  ETV
vector 515  Highway.node[6].prot  nodeId  ETV
vector 516  Highway.node[6].prot  busyTime  ETV
vector 517  Highway.node[6].prot  collisions  ETV
vector 538  Highway.node[7].prot  nodeId  ETV
vector 539  Highway.node[7].prot  busyTime  ETV
vector 540  Highway.node[7].prot  collisions  ETV
376	233	1.11	-0.00218518
376	790	1.21	-0.00213419
376	1346	1.31	-0.00205408
376	1903	1.41	-0.00195152
376	2460	1.51	-0.00183238
376	3016	1.61	-0.00170178
376	3572	1.71	-0.00156412
376	4129	1.81	-0.00142314
376	4685	1.91	-0.00128196
376	5252	2.01	-0.00114315
376	5808	2.11	-0.00100877
376	6364	2.21	-0.000880447
376	6920	2.31	-0.000759381
376	7476	2.41	-0.000646445
376	8032	2.51	-0.000542204
376	8588	2.61	-0.000446965
376	9144	2.71	-0.000360819
376	9700	2.81	-0.000283678
376	10256	2.91	-0.000215307
376	10820	3.01	-0.000155357
376	11376	3.11	-0.000103391
376	11932	3.21	-5.89069e-05
376	12488	3.31	-2.13575e-05
376	13044	3.41	9.82919e-06
376	13600	3.51	3.52368e-05
376	14156	3.61	5.54479e-05
376	14712	3.71	7.10335e-05
376	15268	3.81	8.25451e-05
376	15824	3.91	9.05081e-05
376	16388	4.01	9.54172e-05
376	16944	4.11	9.7733e-05
376	17500	4.21	9.78798e-05
376	18056	4.31	9.62447e-05
376	18612	4.41	9.31771e-05
376	19168	4.51	8.89894e-05
376	19724	4.61	8.39579e-05
376	20280	4.71	7.83245e-05
376	20836	4.81	7.22983e-05
376	21392	4.91	6.6058e-05
376	21957	5.01	5.9754e-05
376	22514	5.11	1.21855
376	23071	5.21	1.5
376	23628	5.31	1.5
376	24185	5.41	1.5
376	24742	5.51	1.5
376	25299	5.61	1.5
376	25856	5.71	1.5
376	26413	5.81	1.5
376	26970	5.91	1.5
376	27535	6.01	1.5
376	28092	6.11	1.5
376	28649	6.21	1.5
376	29206	6.31	1.5
376	29763	6.41	1.5
376	30320	6.51	1.5
376	30877	6.61	1.5
376	31434	6.71	1.5
376	31991	6.81	1.5
376	32548	6.91	1.5
376	33113	7.01	1.5
376	33670	7.11	1.5
376	34227	7.21	1.19534
376	34784	7.31	-0.110117
376	35341	7.41	-1.43481
376	35898	7.51	-1.5
376	36455	7.61	-1.5
376	37012	7.71	-1.5
376	37569	7.81	-1.5
376	38126	7.91	-1.5
376	38691	8.01	-1.5
376	39248	8.11	-1.5
376	39805	8.21	-1.5
376	40362	8.31	-1.5
376	40919	8.41	-1.5
376	41476	8.51	-1.5
376	42033	8.61	-1.5
376	42590	8.71	-1.5
376	43147	8.81	-1.5
376	43704	8.91	-1.5
376	44269	9.01	-1.5
376	44826	9.11	-1.5
376	45383	9.21	-1.5
376	45940	9.31	-1.5
376	46497	9.41	-1.5
376	47054	9.51	-1.5
376	47611	9.61	-1.5
376	48168	9.71	-1.5
376	48725	9.81	-1.5
376	49282	9.91	-1.4292
376	49847	10.01	-0.063558
376	50404	10.11	1.28627
376	50961	10.21	1.5
376	51518	10.31	1.5
376	52075	10.41	1.5
376	52632	10.51	1.5
376	53189	10.61	1.5
376	53746	10.71	1.5
376	54303	10.81	1.5
376	54860	10.91	1.5
376	55425	11.01	1.5
376	55982	11.11	1.5
376	56539	11.21	1.5
376	57096	11.31	1.5
376	57653	11.41	1.5
376	58210	11.51	1.5
376	58767	11.61	1.5
376	59324	11.71	1.5
376	59881	11.81	1.5
376	60438	11.91	1.5
376	61003	12.01	1.5
376	61560	12.11	1.5
376	62117	12.21	1.5
376	62674	12.31	0.533523
376	63231	12.41	-0.802356
376	63788	12.51	-1.5
376	64345	12.61	-1.5
376	64902	12.71	-1.5
376	65459	12.81	-1.5
376	66016	12.91	-1.5
376	66581	13.01	-1.5
376	67138	13.11	-1.5
376	67695	13.21	-1.5
376	68252	13.31	-1.5
376	68809	13.41	-1.5
376	69366	13.51	-1.5
376	69923	13.61	-1.5
376	70480	13.71	-1.5
376	71037	13.81	-1.5
376	71594	13.91	-1.5
376	72159	14.01	-1.5
376	72716	14.11	-1.5
376	73273	14.21	-1.5
376	73830	14.31	-1.5
376	74387	14.41	-1.5
376	74944	14.51	-1.5
376	75501	14.61	-1.5
376	76058	14.71	-1.5
376	76615	14.81	-1.5
376	77172	14.91	-0.936584
376	77737	15.01	0.423872
376	78294	15.11	1.5
376	78851	15.21	1.5
376	79408	15.31	1.5
376	79965	15.41	1.5
376	80522	15.51	1.5
376	81079	15.61	1.5
376	81636	15.71	1.5
376	82193	15.81	1.5
376	82750	15.91	1.5
376	83315	16.01	1.5
376	83872	16.11	1.5
376	84429	16.21	1.5
376	84986	16.31	1.5
376	85543	16.41	1.5
376	86100	16.51	1.5
376	86657	16.61	1.5
376	87214	16.71	1.5
376	87771	16.81	1.5
376	88328	16.91	1.5
376	88893	17.01	1.5
376	89450	17.11	1.5
376	90007	17.21	1.5
376	90564	17.31	0.912285
376	91121	17.41	-0.427667
376	91678	17.51	-1.5
376	92235	17.61	-1.5
376	92792	17.71	-1.5
376	93349	17.81	-1.5
376	93906	17.91	-1.5
376	94471	18.01	-1.5
376	95028	18.11	-1.5
376	95585	18.21	-1.5
376	96142	18.31	-1.5
376	96699	18.41	-1.5
376	97256	18.51	-1.5
376	97813	18.61	-1.5
376	98370	18.71	-1.5
376	98927	18.81	-1.5
376	99484	18.91	-1.5
376	100049	19.01	-1.5
376	100606	19.11	-1.5
376	101163	19.21	-1.5
376	101720	19.31	-1.5
376	102277	19.41	-1.5
376	102834	19.51	-1.5
376	103391	19.61	-1.5
376	103948	19.71	-1.5
376	104505	19.81	-1.5
376	105062	19.91	-0.633357
376	105627	20.01	0.723924
376	106184	20.11	1.5
376	106741	20.21	1.5
376	107298	20.31	1.5
376	107855	20.41	1.5
376	108412	20.51	1.5
376	108969	20.61	1.5
376	109526	20.71	1.5
376	110083	20.81	1.5
376	110640	20.91	1.5
376	111205	21.01	1.5
376	111762	21.11	1.5
376	112319	21.21	1.5
376	112876	21.31	1.5
376	113433	21.41	1.5
376	113990	21.51	1.5
376	114547	21.61	1.5
376	115104	21.71	1.5
376	115661	21.81	1.5
376	116218	21.91	1.5
376	116783	22.01	1.5
376	117340	22.11	1.5
376	117897	22.21	1.5
376	118454	22.31	1.1557
376	119011	22.41	-0.186833
376	119568	22.51	-1.5
376	120125	22.61	-1.5
376	120682	22.71	-1.5
376	121239	22.81	-1.5
376	121796	22.91	-1.5
376	122361	23.01	-1.5
376	122918	23.11	-1.5
376	123475	23.21	-1.5
376	124032	23.31	-1.5
376	124589	23.41	-1.5
376	125146	23.51	-1.5
376	125703	23.61	-1.5
376	126260	23.71	-1.5
376	126817	23.81	-1.5
376	127374	23.91	-1.5
376	127939	24.01	-1.5
376	128496	24.11	-1.5
376	129053	24.21	-1.5
376	129610	24.31	-1.5
376	130167	24.41	-1.5
376	130724	24.51	-1.5
376	131281	24.61	-1.5
376	131838	24.71	-1.5
376	132395	24.81	-1.5
376	132952	24.91	-0.43831
376	133517	25.01	0.916929
376	134074	25.11	1.5
376	134631	25.21	1.5
376	135188	25.31	1.5
376	135745	25.41	1.5
376	136302	25.51	1.5
376	136859	25.61	1.5
376	137416	25.71	1.5
376	137973	25.81	1.5
376	138530	25.91	1.5
376	139095	26.01	1.5
376	139652	26.11	1.5
376	140209	26.21	1.5
376	140766	26.31	1.5
376	141323	26.41	1.5
376	141880	26.51	1.5
376	142437	26.61	1.5
376	142994	26.71	1.5
376	143551	26.81	1.5
376	144108	26.91	1.5
376	144673	27.01	1.5
376	145230	27.11	1.5
376	145787	27.21	1.5
376	146344	27.31	1.31228
376	146901	27.41	-0.0319178
376	147458	27.51	-1.37804
376	148015	27.61	-1.5
376	148572	27.71	-1.5
376	149129	27.81	-1.5
376	149686	27.91	-1.5
376	150251	28.01	-1.5
376	150808	28.11	-1.5
376	151365	28.21	-1.5
376	151922	28.31	-1.5
376	152479	28.41	-1.5
376	153036	28.51	-1.5
376	153593	28.61	-1.5
376	154150	28.71	-1.5
376	154707	28.81	-1.5
376	155264	28.91	-1.5
376	155829	29.01	-1.5
376	156386	29.11	-1.5
376	156943	29.21	-1.5
376	157500	29.31	-1.5
376	158057	29.41	-1.5
376	158614	29.51	-1.5
376	159171	29.61	-1.5
376	159728	29.71	-1.5
376	160285	29.81	-1.5
376	160842	29.91	-0.320565
376	161407	30.01	1.03343
376	161964	30.11	1.5
376	162521	30.21	1.5
376	163078	30.31	1.5
376	163635	30.41	1.5
376	164192	30.51	1.5
376	164749	30.61	1.5
376	165306	30.71	1.5
376	165863	30.81	1.5
376	166420	30.91	1.5
376	166985	31.01	1.5
376	167542	31.11	1.5
376	168099	31.21	1.5
376	168656	31.31	1.5
376	169213	31.41	1.5
376	169770	31.51	1.5
376	170327	31.61	1.5
376	170884	31.71	1.5
376	171441	31.81	1.5
376	171998	31.91	1.5
376	172563	32.01	1.5
376	173120	32.11	1.5
376	173677	32.21	1.5
376	174234	32.31	1.40672
376	174791	32.41	0.0615183
376	175348	32.51	-1.28711
376	175905	32.61	-1.5
376	176462	32.71	-1.5
376	177019	32.81	-1.5
376	177576	32.91	-1.5
376	178141	33.01	-1.5
376	178698	33.11	-1.5
376	179255	33.21	-1.5
376	179812	33.31	-1.5
376	180369	33.41	-1.5
376	180926	33.51	-1.5
376	181483	33.61	-1.5
376	182040	33.71	-1.5
376	182597	33.81	-1.5
376	183154	33.91	-1.5
376	183719	34.01	-1.5
376	184276	34.11	-1.5
376	184833	34.21	-1.5
376	185390	34.31	-1.5
376	185947	34.41	-1.5
376	186504	34.51	-1.5
376	187061	34.61	-1.5
376	187618	34.71	-1.5
376	188175	34.81	-1.5
376	188732	34.91	-0.253761
376	189297	35.01	1.09942
376	189854	35.11	1.5
376	190411	35.21	1.5
376	190968	35.31	1.5
376	191525	35.41	1.5
376	192082	35.51	1.5
376	192639	35.61	1.5
376	193196	35.71	1.5
376	193753	35.81	1.5
376	194310	35.91	1.5
376	194875	36.01	1.5
376	195432	36.11	1.5
376	195989	36.21	1.5
376	196546	36.31	1.5
376	197103	36.41	1.5
376	197660	36.51	1.5
376	198217	36.61	1.5
376	198774	36.71	1.5
376	199331	36.81	1.5
376	199888	36.91	1.5
376	200453	37.01	1.5
376	201010	37.11	1.5
376	201567	37.21	1.5
376	202124	37.31	1.45977
376	202681	37.41	0.113999
376	203238	37.51	-1.23603
376	203795	37.61	-1.5
376	204352	37.71	-1.5
376	204909	37.81	-1.5
376	205466	37.91	-1.5
376	206031	38.01	-1.5
376	206588	38.11	-1.5
376	207145	38.21	-1.5
376	207702	38.31	-1.5
376	208259	38.41	-1.5
376	208816	38.51	-1.5
376	209373	38.61	-1.5
376	209930	38.71	-1.5
376	210487	38.81	-1.5
376	211044	38.91	-1.5
376	211609	39.01	-1.5
376	212166	39.11	-1.5
376	212723	39.21	-1.5
376	213280	39.31	-1.5
376	213837	39.41	-1.5
376	214394	39.51	-1.5
376	214951	39.61	-1.5
376	215508	39.71	-1.5
376	216065	39.81	-1.5
376	216622	39.91	-0.216308
376	217187	40.01	1.13622
376	217744	40.11	1.5
376	218301	40.21	1.5
376	218858	40.31	1.5
376	219415	40.41	1.5
376	219972	40.51	1.5
376	220529	40.61	1.5
376	221086	40.71	1.5
376	221643	40.81	1.5
376	222200	40.91	1.5
376	222765	41.01	1.5
376	223322	41.11	1.5
376	223879	41.21	1.5
376	224436	41.31	1.5
376	224993	41.41	1.5
376	225550	41.51	1.5
376	226107	41.61	1.5
376	226664	41.71	1.5
376	227221	41.81	1.5
376	227778	41.91	1.5
376	228343	42.01	1.5
376	228900	42.11	1.5
376	229457	42.21	1.5
376	230014	42.31	1.48842
376	230571	42.41	0.142349
376	231128	42.51	-1.20844
376	231685	42.61	-1.5
376	232242	42.71	-1.5
376	232799	42.81	-1.5
376	233356	42.91	-1.5
376	233921	43.01	-1.5
376	234478	43.11	-1.5
376	235035	43.21	-1.5
376	235592	43.31	-1.5
376	236149	43.41	-1.5
376	236706	43.51	-1.5
376	237263	43.61	-1.5
376	237820	43.71	-1.5
376	238377	43.81	-1.5
376	238934	43.91	-1.5
376	239499	44.01	-1.5
376	240056	44.11	-1.5
376	240613	44.21	-1.5
376	241170	44.31	-1.5
376	241727	44.41	-1.5
376	242284	44.51	-1.5
376	242841	44.61	-1.5
376	243398	44.71	-1.5
376	243955	44.81	-1.5
376	244512	44.91	-0.196125
376	245077	45.01	1.15599
376	245634	45.11	1.5
376	246191	45.21	1.5
376	246748	45.31	1.5
376	247305	45.41	1.5
376	247862	45.51	1.5
376	248419	45.61	1.5
376	248976	45.71	1.5
376	249533	45.81	1.5
376	250090	45.91	1.5
376	250655	46.01	1.5
376	251212	46.11	1.5
376	251769	46.21	1.5
376	252326	46.31	1.5
376	252883	46.41	1.5
376	253440	46.51	1.5
376	253997	46.61	1.5
376	254554	46.71	1.5
376	255111	46.81	1.5
376	255668	46.91	1.5
376	256233	47.01	1.5
376	256790	47.11	1.5
376	257347	47.21	1.5
376	257904	47.31	1.5
376	258461	47.41	0.1573
376	259018	47.51	-1.19389
376	259575	47.61	-1.5
376	260132	47.71	-1.5
376	260689	47.81	-1.5
376	261246	47.91	-1.5
376	261811	48.01	-1.5
376	262368	48.11	-1.5
376	262925	48.21	-1.5
376	263482	48.31	-1.5
376	264039	48.41	-1.5
376	264596	48.51	-1.5
376	265153	48.61	-1.5
376	265710	48.71	-1.5
376	266267	48.81	-1.5
376	266824	48.91	-1.5
376	267389	49.01	-1.5
376	267946	49.11	-1.5
376	268503	49.21	-1.5
376	269060	49.31	-1.5
376	269617	49.41	-1.5
376	270174	49.51	-1.5
376	270731	49.61	-1.5
376	271288	49.71	-1.5
376	271845	49.81	-1.5
376	272402	49.91	-0.185471
376	272967	50.01	1.1664
376	273524	50.11	1.5
376	274081	50.21	1.5
376	274638	50.31	1.5
376	275195	50.41	1.5
376	275752	50.51	1.5
376	276309	50.61	1.5
376	276866	50.71	1.5
376	277423	50.81	1.5
376	277980	50.91	1.5
376	278545	51.01	1.5
376	279102	51.11	1.5
376	279659	51.21	1.5
376	280216	51.31	1.5
376	280773	51.41	1.5
376	281330	51.51	1.5
376	281887	51.61	1.5
376	282444	51.71	1.5
376	283001	51.81	1.5
376	283558	51.91	1.5
376	284123	52.01	1.5
376	284680	52.11	1.5
376	285237	52.21	1.5
376	285794	52.31	1.5
376	286351	52.41	0.165103
376	286908	52.51	-1.18628
376	287465	52.61	-1.5
376	288022	52.71	-1.5
376	288579	52.81	-1.5
376	289136	52.91	-1.5
376	289701	53.01	-1.5
376	290258	53.11	-1.5
376	290815	53.21	-1.5
376	291372	53.31	-1.5
376	291929	53.41	-1.5
376	292486	53.51	-1.5
376	293043	53.61	-1.5
376	293600	53.71	-1.5
376	294157	53.81	-1.5
376	294714	53.91	-1.5
376	295279	54.01	-1.5
376	295836	54.11	-1.5
376	296393	54.21	-1.5
376	296950	54.31	-1.5
376	297507	54.41	-1.5
376	298064	54.51	-1.5
376	298621	54.61	-1.5
376	299178	54.71	-1.5
376	299735	54.81	-1.5
376	300292	54.91	-0.179868
376	300857	55.01	1.17187
376	301414	55.11	1.5
376	301971	55.21	1.5
376	302528	55.31	1.5
376	303085	55.41	1.5
376	303642	55.51	1.5
376	304199	55.61	1.5
376	304756	55.71	1.5
376	305313	55.81	1.5
376	305870	55.91	1.5
376	306435	56.01	1.5
376	306992	56.11	1.5
376	307549	56.21	1.5
376	308106	56.31	1.5
376	308663	56.41	1.5
376	309220	56.51	1.5
376	309777	56.61	1.5
376	310334	56.71	1.5
376	310891	56.81	1.5
376	311448	56.91	1.5
376	312013	57.01	1.5
376	312570	57.11	1.5
376	313127	57.21	1.5
376	313684	57.31	1.5
376	314241	57.41	0.169182
376	314798	57.51	-1.18231
376	315355	57.61	-1.5
376	315912	57.71	-1.5
376	316469	57.81	-1.5
376	317026	57.91	-1.5
376	317591	58.01	-1.5
376	318148	58.11	-1.5
376	318705	58.21	-1.5
376	319262	58.31	-1.5
376	319819	58.41	-1.5
376	320376	58.51	-1.5
376	320933	58.61	-1.5
376	321490	58.71	-1.5
376	322047	58.81	-1.5
376	322604	58.91	-1.5
376	323169	59.01	-1.5
376	323726	59.11	-1.5
376	324283	59.21	-1.5
376	324840	59.31	-1.5
376	325397	59.41	-1.5
376	325954	59.51	-1.5
376	326511	59.61	-1.5
376	327068	59.71	-1.5
376	327625	59.81	-1.5
376	328182	59.91	-0.176935
375	233	1.11	-0.000358191
375	790	1.21	-0.000681704
375	1346	1.31	-0.00093487
375	1903	1.41	-0.00112579
375	2460	1.51	-0.00126221
375	3016	1.61	-0.00135149
375	3572	1.71	-0.00140049
375	4129	1.81	-0.00141557
375	4685	1.91	-0.00140255
375	5252	2.01	-0.00136671
375	5808	2.11	-0.0013128
375	6364	2.21	-0.00124502
375	6920	2.31	-0.0011671
375	7476	2.41	-0.00108223
375	8032	2.51	-0.000993208
375	8588	2.61	-0.000902362
375	9144	2.71	-0.000811651
375	9700	2.81	-0.000722679
375	10256	2.91	-0.000636729
375	10820	3.01	-0.0005548
375	11376	3.11	-0.000477639
375	11932	3.21	-0.000405773
375	12488	3.31	-0.00033954
375	13044	3.41	-0.000279116
375	13600	3.51	-0.000224541
375	14156	3.61	-0.000175743
375	14712	3.71	-0.00013256
375	15268	3.81	-9.47571e-05
375	15824	3.91	-6.2046e-05
375	16388	4.01	-3.40986e-05
375	16944	4.11	-1.05605e-05
375	17500	4.21	8.93844e-06
375	18056	4.31	2.4774e-05
375	18612	4.41	3.73203e-05
375	19168	4.51	4.69433e-05
375	19724	4.61	5.39956e-05
375	20280	4.71	5.88124e-05
375	20836	4.81	6.1709e-05
375	21392	4.91	6.29785e-05
375	21957	5.01	6.28903e-05
375	22514	5.11	0.0239538
375	23071	5.21	0.243384
375	23628	5.31	0.469137
375	24185	5.41	0.654333
375	24742	5.51	0.806259
375	25299	5.61	0.930891
375	25856	5.71	1.03313
375	26413	5.81	1.11701
375	26970	5.91	1.18581
375	27535	6.01	1.24226
375	28092	6.11	1.28856
375	28649	6.21	1.32655
375	29206	6.31	1.35771
375	29763	6.41	1.38327
375	30320	6.51	1.40424
375	30877	6.61	1.42144
375	31434	6.71	1.43556
375	31991	6.81	1.44713
375	32548	6.91	1.45663
375	33113	7.01	1.46442
375	33670	7.11	1.47081
375	34227	7.21	1.47008
375	34784	7.31	1.38319
375	35341	7.41	1.07822
375	35898	7.51	0.618121
375	36455	7.61	0.237597
375	37012	7.71	-0.0745656
375	37569	7.81	-0.330647
375	38126	7.91	-0.540724
375	38691	8.01	-0.713059
375	39248	8.11	-0.854434
375	39805	8.21	-0.970411
375	40362	8.31	-1.06555
375	40919	8.41	-1.1436
375	41476	8.51	-1.20763
375	42033	8.61	-1.26015
375	42590	8.71	-1.30324
375	43147	8.81	-1.33859
375	43704	8.91	-1.36759
375	44269	9.01	-1.39138
375	44826	9.11	-1.41089
375	45383	9.21	-1.4269
375	45940	9.31	-1.44003
375	46497	9.41	-1.45081
375	47054	9.51	-1.45964
375	47611	9.61	-1.46689
375	48168	9.71	-1.47284
375	48725	9.81	-1.47772
375	49282	9.91	-1.48033
375	49847	10.01	-1.43225
375	50404	10.11	-1.14873
375	50961	10.21	-0.698691
375	51518	10.31	-0.303692
375	52075	10.41	0.0203439
375	52632	10.51	0.286167
375	53189	10.61	0.504234
375	53746	10.71	0.683125
375	54303	10.81	0.829878
375	54860	10.91	0.950267
375	55425	11.01	1.04903
375	55982	11.11	1.13005
375	56539	11.21	1.19651
375	57096	11.31	1.25103
375	57653	11.41	1.29576
375	58210	11.51	1.33245
375	58767	11.61	1.36255
375	59324	11.71	1.38724
375	59881	11.81	1.4075
375	60438	11.91	1.42412
375	61003	12.01	1.43775
375	61560	12.11	1.44893
375	62117	12.21	1.45811
375	62674	12.31	1.44668
375	63231	12.41	1.24496
375	63788	12.51	0.85413
375	64345	12.61	0.431206
375	64902	12.71	0.0842617
375	65459	12.81	-0.200354
375	66016	12.91	-0.433837
375	66581	13.01	-0.625375
375	67138	13.11	-0.782503
375	67695	13.21	-0.911403
375	68252	13.31	-1.01715
375	68809	13.41	-1.10389
375	69366	13.51	-1.17505
375	69923	13.61	-1.23343
375	70480	13.71	-1.28132
375	71037	13.81	-1.32061
375	71594	13.91	-1.35283
375	72159	14.01	-1.37927
375	72716	14.11	-1.40096
375	73273	14.21	-1.41875
375	73830	14.31	-1.43335
375	74387	14.41	-1.44532
375	74944	14.51	-1.45515
375	75501	14.61	-1.4632
375	76058	14.71	-1.46981
375	76615	14.81	-1.47524
375	77172	14.91	-1.46864
375	77737	15.01	-1.33456
375	78294	15.11	-0.987349
375	78851	15.21	-0.540493
375	79408	15.31	-0.173915
375	79965	15.41	0.126807
375	80522	15.51	0.373503
375	81079	15.61	0.57588
375	81636	15.71	0.7419
375	82193	15.81	0.878094
375	82750	15.91	0.98982
375	83315	16.01	1.08148
375	83872	16.11	1.15666
375	84429	16.21	1.21834
375	84986	16.31	1.26894
375	85543	16.41	1.31045
375	86100	16.51	1.34451
375	86657	16.61	1.37244
375	87214	16.71	1.39536
375	87771	16.81	1.41416
375	88328	16.91	1.42958
375	88893	17.01	1.44223
375	89450	17.11	1.45261
375	90007	17.21	1.46112
375	90564	17.31	1.45658
375	91121	17.41	1.32081
375	91678	17.51	0.975571
375	92235	17.61	0.530831
375	92792	17.71	0.165988
375	93349	17.81	-0.133309
375	93906	17.91	-0.378838
375	94471	18.01	-0.580256
375	95028	18.11	-0.74549
375	95585	18.21	-0.881039
375	96142	18.31	-0.992236
375	96699	18.41	-1.08346
375	97256	18.51	-1.15829
375	97813	18.61	-1.21968
375	98370	18.71	-1.27004
375	98927	18.81	-1.31135
375	99484	18.91	-1.34524
375	100049	19.01	-1.37305
375	100606	19.11	-1.39585
375	101163	19.21	-1.41456
375	101720	19.31	-1.42991
375	102277	19.41	-1.4425
375	102834	19.51	-1.45283
375	103391	19.61	-1.46131
375	103948	19.71	-1.46826
375	104505	19.81	-1.47396
375	105062	19.91	-1.46165
375	105627	20.01	-1.27459
375	106184	20.11	-0.890726
375	106741	20.21	-0.461228
375	107298	20.31	-0.10889
375	107855	20.41	0.18015
375	108412	20.51	0.417263
375	108969	20.61	0.611778
375	109526	20.71	0.771349
375	110083	20.81	0.902252
375	110640	20.91	1.00964
375	111205	21.01	1.09773
375	111762	21.11	1.17
375	112319	21.21	1.22929
375	112876	21.31	1.27792
375	113433	21.41	1.31782
375	113990	21.51	1.35055
375	114547	21.61	1.3774
375	115104	21.71	1.39942
375	115661	21.81	1.41749
375	116218	21.91	1.43231
375	116783	22.01	1.44447
375	117340	22.11	1.45445
375	117897	22.21	1.46263
375	118454	22.31	1.46259
375	119011	22.41	1.36927
375	119568	22.51	1.05339
375	120125	22.61	0.594671
375	120682	22.71	0.21836
375	121239	22.81	-0.0903463
375	121796	22.91	-0.343593
375	122361	23.01	-0.551343
375	122918	23.11	-0.721771
375	123475	23.21	-0.861581
375	124032	23.31	-0.976274
375	124589	23.41	-1.07036
375	125146	23.51	-1.14755
375	125703	23.61	-1.21087
375	126260	23.71	-1.26281
375	126817	23.81	-1.30542
375	127374	23.91	-1.34038
375	127939	24.01	-1.36905
375	128496	24.11	-1.39258
375	129053	24.21	-1.41188
375	129610	24.31	-1.42771
375	130167	24.41	-1.4407
375	130724	24.51	-1.45135
375	131281	24.61	-1.46009
375	131838	24.71	-1.46726
375	132395	24.81	-1.47314
375	132952	24.91	-1.45715
375	133517	25.01	-1.23602
375	134074	25.11	-0.828577
375	134631	25.21	-0.410244
375	135188	25.31	-0.0670653
375	135745	25.41	0.214461
375	136302	25.51	0.44541
375	136859	25.61	0.634869
375	137416	25.71	0.790291
375	137973	25.81	0.917792
375	138530	25.91	1.02239
375	139095	26.01	1.10819
375	139652	26.11	1.17858
375	140209	26.21	1.23632
375	140766	26.31	1.28369
375	141323	26.41	1.32255
375	141880	26.51	1.35443
375	142437	26.61	1.38058
375	142994	26.71	1.40204
375	143551	26.81	1.41964
375	144108	26.91	1.43407
375	144673	27.01	1.44592
375	145230	27.11	1.45563
375	145787	27.21	1.4636
375	146344	27.31	1.46646
375	146901	27.41	1.40044
375	147458	27.51	1.10584
375	148015	27.61	0.649195
375	148572	27.71	0.263088
375	149129	27.81	-0.0536535
375	149686	27.91	-0.313492
375	150251	28.01	-0.52665
375	150808	28.11	-0.701514
375	151365	28.21	-0.844964
375	151922	28.31	-0.962642
375	152479	28.41	-1.05918
375	153036	28.51	-1.13837
375	153593	28.61	-1.20334
375	154150	28.71	-1.25664
375	154707	28.81	-1.30036
375	155264	28.91	-1.33622
375	155829	29.01	-1.36565
375	156386	29.11	-1.38978
375	156943	29.21	-1.40958
375	157500	29.31	-1.42583
375	158057	29.41	-1.43915
375	158614	29.51	-1.45008
375	159171	29.61	-1.45905
375	159728	29.71	-1.46641
375	160285	29.81	-1.47244
375	160842	29.91	-1.45427
375	161407	30.01	-1.2126
375	161964	30.11	-0.79095
375	162521	30.21	-0.379377
375	163078	30.31	-0.0417438
375	163635	30.41	0.235233
375	164192	30.51	0.462451
375	164749	30.61	0.648848
375	165306	30.71	0.801759
375	165863	30.81	0.927199
375	166420	30.91	1.0301
375	166985	31.01	1.11452
375	167542	31.11	1.18377
375	168099	31.21	1.24058
375	168656	31.31	1.28719
375	169213	31.41	1.32542
375	169770	31.51	1.35678
375	170327	31.61	1.38251
375	170884	31.71	1.40362
375	171441	31.81	1.42093
375	171998	31.91	1.43514
375	172563	32.01	1.44679
375	173120	32.11	1.45635
375	173677	32.21	1.46419
375	174234	32.31	1.4688
375	174791	32.41	1.41925
375	175348	32.51	1.13782
375	175905	32.61	0.689694
375	176462	32.71	0.296311
375	177019	32.81	-0.026399
375	177576	32.91	-0.291134
375	178141	33.01	-0.508309
375	178698	33.11	-0.686468
375	179255	33.21	-0.83262
375	179812	33.31	-0.952516
375	180369	33.41	-1.05087
375	180926	33.51	-1.13156
375	181483	33.61	-1.19775
375	182040	33.71	-1.25205
375	182597	33.81	-1.29659
375	183154	33.91	-1.33314
375	183719	34.01	-1.36311
375	184276	34.11	-1.38771
375	184833	34.21	-1.40788
375	185390	34.31	-1.42443
375	185947	34.41	-1.43801
375	186504	34.51	-1.44914
375	187061	34.61	-1.45828
375	187618	34.71	-1.46577
375	188175	34.81	-1.47192
375	188732	34.91	-1.45153
375	189297	35.01	-1.19842
375	189854	35.11	-0.768895
375	190411	35.21	-0.361284
375	190968	35.31	-0.0269015
375	191525	35.41	0.247409
375	192082	35.51	0.472439
375	192639	35.61	0.657042
375	193196	35.71	0.808481
375	193753	35.81	0.932714
375	194310	35.91	1.03463
375	194875	36.01	1.11823
375	195432	36.11	1.18682
375	195989	36.21	1.24308
375	196546	36.31	1.28924
375	197103	36.41	1.3271
375	197660	36.51	1.35816
375	198217	36.61	1.38364
375	198774	36.71	1.40455
375	199331	36.81	1.4217
375	199888	36.91	1.43576
375	200453	37.01	1.4473
375	201010	37.11	1.45677
375	201567	37.21	1.46454
375	202124	37.31	1.47012
375	202681	37.41	1.42982
375	203238	37.51	1.15579
375	203795	37.61	0.712447
375	204352	37.71	0.314977
375	204909	37.81	-0.0110866
375	205466	37.91	-0.278572
375	206031	38.01	-0.498004
375	206588	38.11	-0.678014
375	207145	38.21	-0.825685
375	207702	38.31	-0.946827
375	208259	38.41	-1.04621
375	208816	38.51	-1.12773
375	209373	38.61	-1.19461
375	209930	38.71	-1.24947
375	210487	38.81	-1.29448
375	211044	38.91	-1.3314
375	211609	39.01	-1.36169
375	212166	39.11	-1.38654
375	212723	39.21	-1.40692
375	213280	39.31	-1.42364
375	213837	39.41	-1.43736
375	214394	39.51	-1.44861
375	214951	39.61	-1.45785
375	215508	39.71	-1.46542
375	216065	39.81	-1.47163
375	216622	39.91	-1.44779
375	217187	40.01	-1.18868
375	217744	40.11	-0.755104
375	218301	40.21	-0.349971
375	218858	40.31	-0.0176205
375	219415	40.41	0.255023
375	219972	40.51	0.478685
375	220529	40.61	0.662166
375	221086	40.71	0.812684
375	221643	40.81	0.936162
375	222200	40.91	1.03746
375	222765	41.01	1.12055
375	223322	41.11	1.18872
375	223879	41.21	1.24464
375	224436	41.31	1.29052
375	224993	41.41	1.32815
375	225550	41.51	1.35902
375	226107	41.61	1.38435
375	226664	41.71	1.40513
375	227221	41.81	1.42217
375	227778	41.91	1.43615
375	228343	42.01	1.44762
375	228900	42.11	1.45703
375	229457	42.21	1.46475
375	230014	42.31	1.47086
375	230571	42.41	1.43555
375	231128	42.51	1.16551
375	231685	42.61	0.724751
375	232242	42.71	0.325071
375	232799	42.81	-0.00280632
375	233356	42.91	-0.27178
375	233921	43.01	-0.492432
375	234478	43.11	-0.673443
375	235035	43.21	-0.821935
375	235592	43.31	-0.943751
375	236149	43.41	-1.04368
375	236706	43.51	-1.12566
375	237263	43.61	-1.19291
375	237820	43.71	-1.24808
375	238377	43.81	-1.29334
375	238934	43.91	-1.33047
375	239499	44.01	-1.36092
375	240056	44.11	-1.38591
375	240613	44.21	-1.4064
375	241170	44.31	-1.42322
375	241727	44.41	-1.43701
375	242284	44.51	-1.44833
375	242841	44.61	-1.45761
375	243398	44.71	-1.46523
375	243955	44.81	-1.47147
375	244512	44.91	-1.44508
375	245077	45.01	-1.18287
375	245634	45.11	-0.747231
375	246191	45.21	-0.343512
375	246748	45.31	-0.0123218
375	247305	45.41	0.259369
375	247862	45.51	0.482251
375	248419	45.61	0.665091
375	248976	45.71	0.815084
375	249533	45.81	0.93813
375	250090	45.91	1.03907
375	250655	46.01	1.12188
375	251212	46.11	1.18981
375	251769	46.21	1.24553
375	252326	46.31	1.29125
375	252883	46.41	1.32875
375	253440	46.51	1.35952
375	253997	46.61	1.38476
375	254554	46.71	1.40546
375	255111	46.81	1.42244
375	255668	46.91	1.43638
375	256233	47.01	1.44781
375	256790	47.11	1.45718
375	257347	47.21	1.46488
375	257904	47.31	1.47119
375	258461	47.41	1.43852
375	259018	47.51	1.1706
375	259575	47.61	0.731207
375	260132	47.71	0.330367
375	260689	47.81	0.00153846
375	261246	47.91	-0.268215
375	261811	48.01	-0.489508
375	262368	48.11	-0.671044
375	262925	48.21	-0.819968
375	263482	48.31	-0.942137
375	264039	48.41	-1.04236
375	264596	48.51	-1.12457
375	265153	48.61	-1.19202
375	265710	48.71	-1.24735
375	266267	48.81	-1.29274
375	266824	48.91	-1.32997
375	267389	49.01	-1.36052
375	267946	49.11	-1.38558
375	268503	49.21	-1.40613
375	269060	49.31	-1.423
375	269617	49.41	-1.43683
375	270174	49.51	-1.44818
375	270731	49.61	-1.45749
375	271288	49.71	-1.46513
375	271845	49.81	-1.47139
375	272402	49.91	-1.44345
375	272967	50.01	-1.17964
375	273524	50.11	-0.742941
375	274081	50.21	-0.339993
375	274638	50.31	-0.00943511
375	275195	50.41	0.261737
375	275752	50.51	0.484193
375	276309	50.61	0.666685
375	276866	50.71	0.816391
375	277423	50.81	0.939203
375	277980	50.91	1.03995
375	278545	51.01	1.1226
375	279102	51.11	1.1904
375	279659	51.21	1.24602
375	280216	51.31	1.29165
375	280773	51.41	1.32908
375	281330	51.51	1.35979
375	281887	51.61	1.38498
375	282444	51.71	1.40564
375	283001	51.81	1.42259
375	283558	51.91	1.4365
375	284123	52.01	1.44791
375	284680	52.11	1.45727
375	285237	52.21	1.46494
375	285794	52.31	1.47124
375	286351	52.41	1.43997
375	286908	52.51	1.17317
375	287465	52.61	0.734515
375	288022	52.71	0.33308
375	288579	52.81	0.0037643
375	289136	52.91	-0.26639
375	289701	53.01	-0.48801
375	290258	53.11	-0.669816
375	290815	53.21	-0.81896
375	291372	53.31	-0.94131
375	291929	53.41	-1.04168
375	292486	53.51	-1.12402
375	293043	53.61	-1.19156
375	293600	53.71	-1.24697
375	294157	53.81	-1.29243
375	294714	53.91	-1.32972
375	295279	54.01	-1.36031
375	295836	54.11	-1.38541
375	296393	54.21	-1.40599
375	296950	54.31	-1.42288
375	297507	54.41	-1.43674
375	298064	54.51	-1.4481
375	298621	54.61	-1.45743
375	299178	54.71	-1.46507
375	299735	54.81	-1.47135
375	300292	54.91	-1.44254
375	300857	55.01	-1.17789
375	301414	55.11	-0.740652
375	301971	55.21	-0.338115
375	302528	55.31	-0.00789462
375	303085	55.41	0.263001
375	303642	55.51	0.48523
375	304199	55.61	0.667535
375	304756	55.71	0.817089
375	305313	55.81	0.939775
375	305870	55.91	1.04042
375	306435	56.01	1.12298
375	306992	56.11	1.19072
375	307549	56.21	1.24628
375	308106	56.31	1.29186
375	308663	56.41	1.32925
375	309220	56.51	1.35993
375	309777	56.61	1.38509
375	310334	56.71	1.40574
375	310891	56.81	1.42267
375	311448	56.91	1.43656
375	312013	57.01	1.44796
375	312570	57.11	1.45731
375	313127	57.21	1.46498
375	313684	57.31	1.47127
375	314241	57.41	1.44072
375	314798	57.51	1.17451
375	315355	57.61	0.736235
375	315912	57.71	0.334492
375	316469	57.81	0.00492235
375	317026	57.91	-0.26544
375	317591	58.01	-0.48723
375	318148	58.11	-0.669176
375	318705	58.21	-0.818435
375	319262	58.31	-0.940879
375	319819	58.41	-1.04133
375	320376	58.51	-1.12373
375	320933	58.61	-1.19133
375	321490	58.71	-1.24678
375	322047	58.81	-1.29227
375	322604	58.91	-1.32959
375	323169	59.01	-1.3602
375	323726	59.11	-1.38532
375	324283	59.21	-1.40592
375	324840	59.31	-1.42282
375	325397	59.41	-1.43669
375	325954	59.51	-1.44806
375	326511	59.61	-1.45739
375	327068	59.71	-1.46505
375	327625	59.81	-1.47133
375	328182	59.91	-1.44204
374	233	1.11	242.45
374	790	1.21	242.45
374	1346	1.31	242.45
374	1903	1.41	242.45
374	2460	1.51	242.45
374	3016	1.61	242.45
374	3572	1.71	242.45
374	4129	1.81	242.45
374	4685	1.91	242.45
374	5252	2.01	242.45
374	5808	2.11	242.45
374	6364	2.21	242.45
374	6920	2.31	242.45
374	7476	2.41	242.45
374	8032	2.51	242.45
374	8588	2.61	242.45
374	9144	2.71	242.45
374	9700	2.81	242.45
374	10256	2.91	242.45
374	10820	3.01	242.45
374	11376	3.11	242.45
374	11932	3.21	242.45
374	12488	3.31	242.45
374	13044	3.41	242.45
374	13600	3.51	242.45
374	14156	3.61	242.45
374	14712	3.71	242.45
374	15268	3.81	242.45
374	15824	3.91	242.45
374	16388	4.01	242.45
374	16944	4.11	242.45
374	17500	4.21	242.45
374	18056	4.31	242.45
374	18612	4.41	242.45
374	19168	4.51	242.45
374	19724	4.61	242.45
374	20280	4.71	242.45
374	20836	4.81	242.45
374	21392	4.91	242.45
374	21957	5.01	242.45
374	22514	5.11	242.45
374	23071	5.21	242.45
374	23628	5.31	242.45
374	24185	5.41	242.45
374	24742	5.51	242.45
374	25299	5.61	242.45
374	25856	5.71	242.45
374	26413	5.81	242.45
374	26970	5.91	242.45
374	27535	6.01	242.45
374	28092	6.11	242.45
374	28649	6.21	242.45
374	29206	6.31	242.45
374	29763	6.41	242.45
374	30320	6.51	242.45
374	30877	6.61	242.45
374	31434	6.71	242.45
374	31991	6.81	242.45
374	32548	6.91	242.45
374	33113	7.01	242.45
374	33670	7.11	242.45
374	34227	7.21	242.45
374	34784	7.31	242.45
374	35341	7.41	242.45
374	35898	7.51	242.45
374	36455	7.61	242.45
374	37012	7.71	242.45
374	37569	7.81	242.45
374	38126	7.91	242.45
374	38691	8.01	242.45
374	39248	8.11	242.45
374	39805	8.21	242.45
374	40362	8.31	242.45
374	40919	8.41	242.45
374	41476	8.51	242.45
374	42033	8.61	242.45
374	42590	8.71	242.45
374	43147	8.81	242.45
374	43704	8.91	242.45
374	44269	9.01	242.45
374	44826	9.11	242.45
374	45383	9.21	242.45
374	45940	9.31	242.45
374	46497	9.41	242.45
374	47054	9.51	242.45
374	47611	9.61	242.45
374	48168	9.71	242.45
374	48725	9.81	242.45
374	49282	9.91	242.45
374	49847	10.01	242.45
374	50404	10.11	242.45
374	50961	10.21	242.45
374	51518	10.31	242.45
374	52075	10.41	242.45
374	52632	10.51	242.45
374	53189	10.61	242.45
374	53746	10.71	242.45
374	54303	10.81	242.45
374	54860	10.91	242.45
374	55425	11.01	242.45
374	55982	11.11	242.45
374	56539	11.21	242.45
374	57096	11.31	242.45
374	57653	11.41	242.45
374	58210	11.51	242.45
374	58767	11.61	242.45
374	59324	11.71	242.45
374	59881	11.81	242.45
374	60438	11.91	242.45
374	61003	12.01	242.45
374	61560	12.11	242.45
374	62117	12.21	242.45
374	62674	12.31	242.45
374	63231	12.41	242.45
374	63788	12.51	242.45
374	64345	12.61	242.45
374	64902	12.71	242.45
374	65459	12.81	242.45
374	66016	12.91	242.45
374	66581	13.01	242.45
374	67138	13.11	242.45
374	67695	13.21	242.45
374	68252	13.31	242.45
374	68809	13.41	242.45
374	69366	13.51	242.45
374	69923	13.61	242.45
374	70480	13.71	242.45
374	71037	13.81	242.45
374	71594	13.91	242.45
374	72159	14.01	242.45
374	72716	14.11	242.45
374	73273	14.21	242.45
374	73830	14.31	242.45
374	74387	14.41	242.45
374	74944	14.51	242.45
374	75501	14.61	242.45
374	76058	14.71	242.45
374	76615	14.81	242.45
374	77172	14.91	242.45
374	77737	15.01	242.45
374	78294	15.11	242.45
374	78851	15.21	242.45
374	79408	15.31	242.45
374	79965	15.41	242.45
374	80522	15.51	242.45
374	81079	15.61	242.45
374	81636	15.71	242.45
374	82193	15.81	242.45
374	82750	15.91	242.45
374	83315	16.01	242.45
374	83872	16.11	242.45
374	84429	16.21	242.45
374	84986	16.31	242.45
374	85543	16.41	242.45
374	86100	16.51	242.45
374	86657	16.61	242.45
374	87214	16.71	242.45
374	87771	16.81	242.45
374	88328	16.91	242.45
374	88893	17.01	242.45
374	89450	17.11	242.45
374	90007	17.21	242.45
374	90564	17.31	242.45
374	91121	17.41	242.45
374	91678	17.51	242.45
374	92235	17.61	242.45
374	92792	17.71	242.45
374	93349	17.81	242.45
374	93906	17.91	242.45
374	94471	18.01	242.45
374	95028	18.11	242.45
374	95585	18.21	242.45
374	96142	18.31	242.45
374	96699	18.41	242.45
374	97256	18.51	242.45
374	97813	18.61	242.45
374	98370	18.71	242.45
374	98927	18.81	242.45
374	99484	18.91	242.45
374	100049	19.01	242.45
374	100606	19.11	242.45
374	101163	19.21	242.45
374	101720	19.31	242.45
374	102277	19.41	242.45
374	102834	19.51	242.45
374	103391	19.61	242.45
374	103948	19.71	242.45
374	104505	19.81	242.45
374	105062	19.91	242.45
374	105627	20.01	242.45
374	106184	20.11	242.45
374	106741	20.21	242.45
374	107298	20.31	242.45
374	107855	20.41	242.45
374	108412	20.51	242.45
374	108969	20.61	242.45
374	109526	20.71	242.45
374	110083	20.81	242.45
374	110640	20.91	242.45
374	111205	21.01	242.45
374	111762	21.11	242.45
374	112319	21.21	242.45
374	112876	21.31	242.45
374	113433	21.41	242.45
374	113990	21.51	242.45
374	114547	21.61	242.45
374	115104	21.71	242.45
374	115661	21.81	242.45
374	116218	21.91	242.45
374	116783	22.01	242.45
374	117340	22.11	242.45
374	117897	22.21	242.45
374	118454	22.31	242.45
374	119011	22.41	242.45
374	119568	22.51	242.45
374	120125	22.61	242.45
374	120682	22.71	242.45
374	121239	22.81	242.45
374	121796	22.91	242.45
374	122361	23.01	242.45
374	122918	23.11	242.45
374	123475	23.21	242.45
374	124032	23.31	242.45
374	124589	23.41	242.45
374	125146	23.51	242.45
374	125703	23.61	242.45
374	126260	23.71	242.45
374	126817	23.81	242.45
374	127374	23.91	242.45
374	127939	24.01	242.45
374	128496	24.11	242.45
374	129053	24.21	242.45
374	129610	24.31	242.45
374	130167	24.41	242.45
374	130724	24.51	242.45
374	131281	24.61	242.45
374	131838	24.71	242.45
374	132395	24.81	242.45
374	132952	24.91	242.45
374	133517	25.01	242.45
374	134074	25.11	242.45
374	134631	25.21	242.45
374	135188	25.31	242.45
374	135745	25.41	242.45
374	136302	25.51	242.45
374	136859	25.61	242.45
374	137416	25.71	242.45
374	137973	25.81	242.45
374	138530	25.91	242.45
374	139095	26.01	242.45
374	139652	26.11	242.45
374	140209	26.21	242.45
374	140766	26.31	242.45
374	141323	26.41	242.45
374	141880	26.51	242.45
374	142437	26.61	242.45
374	142994	26.71	242.45
374	143551	26.81	242.45
374	144108	26.91	242.45
374	144673	27.01	242.45
374	145230	27.11	242.45
374	145787	27.21	242.45
374	146344	27.31	242.45
374	146901	27.41	242.45
374	147458	27.51	242.45
374	148015	27.61	242.45
374	148572	27.71	242.45
374	149129	27.81	242.45
374	149686	27.91	242.45
374	150251	28.01	242.45
374	150808	28.11	242.45
374	151365	28.21	242.45
374	151922	28.31	242.45
374	152479	28.41	242.45
374	153036	28.51	242.45
374	153593	28.61	242.45
374	154150	28.71	242.45
374	154707	28.81	242.45
374	155264	28.91	242.45
374	155829	29.01	242.45
374	156386	29.11	242.45
374	156943	29.21	242.45
374	157500	29.31	242.45
374	158057	29.41	242.45
374	158614	29.51	242.45
374	159171	29.61	242.45
374	159728	29.71	242.45
374	160285	29.81	242.45
374	160842	29.91	242.45
374	161407	30.01	242.45
374	161964	30.11	242.45
374	162521	30.21	242.45
374	163078	30.31	242.45
374	163635	30.41	242.45
374	164192	30.51	242.45
374	164749	30.61	242.45
374	165306	30.71	242.45
374	165863	30.81	242.45
374	166420	30.91	242.45
374	166985	31.01	242.45
374	167542	31.11	242.45
374	168099	31.21	242.45
374	168656	31.31	242.45
374	169213	31.41	242.45
374	169770	31.51	242.45
374	170327	31.61	242.45
374	170884	31.71	242.45
374	171441	31.81	242.45
374	171998	31.91	242.45
374	172563	32.01	242.45
374	173120	32.11	242.45
374	173677	32.21	242.45
374	174234	32.31	242.45
374	174791	32.41	242.45
374	175348	32.51	242.45
374	175905	32.61	242.45
374	176462	32.71	242.45
374	177019	32.81	242.45
374	177576	32.91	242.45
374	178141	33.01	242.45
374	178698	33.11	242.45
374	179255	33.21	242.45
374	179812	33.31	242.45
374	180369	33.41	242.45
374	180926	33.51	242.45
374	181483	33.61	242.45
374	182040	33.71	242.45
374	182597	33.81	242.45
374	183154	33.91	242.45
374	183719	34.01	242.45
374	184276	34.11	242.45
374	184833	34.21	242.45
374	185390	34.31	242.45
374	185947	34.41	242.45
374	186504	34.51	242.45
374	187061	34.61	242.45
374	187618	34.71	242.45
374	188175	34.81	242.45
374	188732	34.91	242.45
374	189297	35.01	242.45
374	189854	35.11	242.45
374	190411	35.21	242.45
374	190968	35.31	242.45
374	191525	35.41	242.45
374	192082	35.51	242.45
374	192639	35.61	242.45
374	193196	35.71	242.45
374	193753	35.81	242.45
374	194310	35.91	242.45
374	194875	36.01	242.45
374	195432	36.11	242.45
374	195989	36.21	242.45
374	196546	36.31	242.45
374	197103	36.41	242.45
374	197660	36.51	242.45
374	198217	36.61	242.45
374	198774	36.71	242.45
374	199331	36.81	242.45
374	199888	36.91	242.45
374	200453	37.01	242.45
374	201010	37.11	242.45
374	201567	37.21	242.45
374	202124	37.31	242.45
374	202681	37.41	242.45
374	203238	37.51	242.45
374	203795	37.61	242.45
374	204352	37.71	242.45
374	204909	37.81	242.45
374	205466	37.91	242.45
374	206031	38.01	242.45
374	206588	38.11	242.45
374	207145	38.21	242.45
374	207702	38.31	242.45
374	208259	38.41	242.45
374	208816	38.51	242.45
374	209373	38.61	242.45
374	209930	38.71	242.45
374	210487	38.81	242.45
374	211044	38.91	242.45
374	211609	39.01	242.45
374	212166	39.11	242.45
374	212723	39.21	242.45
374	213280	39.31	242.45
374	213837	39.41	242.45
374	214394	39.51	242.45
374	214951	39.61	242.45
374	215508	39.71	242.45
374	216065	39.81	242.45
374	216622	39.91	242.45
374	217187	40.01	242.45
374	217744	40.11	242.45
374	218301	40.21	242.45
374	218858	40.31	242.45
374	219415	40.41	242.45
374	219972	40.51	242.45
374	220529	40.61	242.45
374	221086	40.71	242.45
374	221643	40.81	242.45
374	222200	40.91	242.45
374	222765	41.01	242.45
374	223322	41.11	242.45
374	223879	41.21	242.45
374	224436	41.31	242.45
374	224993	41.41	242.45
374	225550	41.51	242.45
374	226107	41.61	242.45
374	226664	41.71	242.45
374	227221	41.81	242.45
374	227778	41.91	242.45
374	228343	42.01	242.45
374	228900	42.11	242.45
374	229457	42.21	242.45
374	230014	42.31	242.45
374	230571	42.41	242.45
374	231128	42.51	242.45
374	231685	42.61	242.45
374	232242	42.71	242.45
374	232799	42.81	242.45
374	233356	42.91	242.45
374	233921	43.01	242.45
374	234478	43.11	242.45
374	235035	43.21	242.45
374	235592	43.31	242.45
374	236149	43.41	242.45
374	236706	43.51	242.45
374	237263	43.61	242.45
374	237820	43.71	242.45
374	238377	43.81	242.45
374	238934	43.91	242.45
374	239499	44.01	242.45
374	240056	44.11	242.45
374	240613	44.21	242.45
374	241170	44.31	242.45
374	241727	44.41	242.45
374	242284	44.51	242.45
374	242841	44.61	242.45
374	243398	44.71	242.45
374	243955	44.81	242.45
374	244512	44.91	242.45
374	245077	45.01	242.45
374	245634	45.11	242.45
374	246191	45.21	242.45
374	246748	45.31	242.45
374	247305	45.41	242.45
374	247862	45.51	242.45
374	248419	45.61	242.45
374	248976	45.71	242.45
374	249533	45.81	242.45
374	250090	45.91	242.45
374	250655	46.01	242.45
374	251212	46.11	242.45
374	251769	46.21	242.45
374	252326	46.31	242.45
374	252883	46.41	242.45
374	253440	46.51	242.45
374	253997	46.61	242.45
374	254554	46.71	242.45
374	255111	46.81	242.45
374	255668	46.91	242.45
374	256233	47.01	242.45
374	256790	47.11	242.45
374	257347	47.21	242.45
374	257904	47.31	242.45
374	258461	47.41	242.45
374	259018	47.51	242.45
374	259575	47.61	242.45
374	260132	47.71	242.45
374	260689	47.81	242.45
374	261246	47.91	242.45
374	261811	48.01	242.45
374	262368	48.11	242.45
374	262925	48.21	242.45
374	263482	48.31	242.45
374	264039	48.41	242.45
374	264596	48.51	242.45
374	265153	48.61	242.45
374	265710	48.71	242.45
374	266267	48.81	242.45
374	266824	48.91	242.45
374	267389	49.01	242.45
374	267946	49.11	242.45
374	268503	49.21	242.45
374	269060	49.31	242.45
374	269617	49.41	242.45
374	270174	49.51	242.45
374	270731	49.61	242.45
374	271288	49.71	242.45
374	271845	49.81	242.45
374	272402	49.91	242.45
374	272967	50.01	242.45
374	273524	50.11	242.45
374	274081	50.21	242.45
374	274638	50.31	242.45
374	275195	50.41	242.45
374	275752	50.51	242.45
374	276309	50.61	242.45
374	276866	50.71	242.45
374	277423	50.81	242.45
374	277980	50.91	242.45
374	278545	51.01	242.45
374	279102	51.11	242.45
374	279659	51.21	242.45
374	280216	51.31	242.45
374	280773	51.41	242.45
374	281330	51.51	242.45
374	281887	51.61	242.45
374	282444	51.71	242.45
374	283001	51.81	242.45
374	283558	51.91	242.45
374	284123	52.01	242.45
374	284680	52.11	242.45
374	285237	52.21	242.45
374	285794	52.31	242.45
374	286351	52.41	242.45
374	286908	52.51	242.45
374	287465	52.61	242.45
374	288022	52.71	242.45
374	288579	52.81	242.45
374	289136	52.91	242.45
374	289701	53.01	242.45
374	290258	53.11	242.45
374	290815	53.21	242.45
374	291372	53.31	242.45
374	291929	53.41	242.45
374	292486	53.51	242.45
374	293043	53.61	242.45
374	293600	53.71	242.45
374	294157	53.81	242.45
374	294714	53.91	242.45
374	295279	54.01	242.45
374	295836	54.11	242.45
374	296393	54.21	242.45
374	296950	54.31	242.45
374	297507	54.41	242.45
374	298064	54.51	242.45
374	298621	54.61	242.45
374	299178	54.71	242.45
374	299735	54.81	242.45
374	300292	54.91	242.45
374	300857	55.01	242.45
374	301414	55.11	242.45
374	301971	55.21	242.45
374	302528	55.31	242.45
374	303085	55.41	242.45
374	303642	55.51	242.45
374	304199	55.61	242.45
374	304756	55.71	242.45
374	305313	55.81	242.45
374	305870	55.91	242.45
374	306435	56.01	242.45
374	306992	56.11	242.45
374	307549	56.21	242.45
374	308106	56.31	242.45
374	308663	56.41	242.45
374	309220	56.51	242.45
374	309777	56.61	242.45
374	310334	56.71	242.45
374	310891	56.81	242.45
374	311448	56.91	242.45
374	312013	57.01	242.45
374	312570	57.11	242.45
374	313127	57.21	242.45
374	313684	57.31	242.45
374	314241	57.41	242.45
374	314798	57.51	242.45
374	315355	57.61	242.45
374	315912	57.71	242.45
374	316469	57.81	242.45
374	317026	57.91	242.45
374	317591	58.01	242.45
374	318148	58.11	242.45
374	318705	58.21	242.45
374	319262	58.31	242.45
374	319819	58.41	242.45
374	320376	58.51	242.45
374	320933	58.61	242.45
374	321490	58.71	242.45
374	322047	58.81	242.45
374	322604	58.91	242.45
374	323169	59.01	242.45
374	323726	59.11	242.45
374	324283	59.21	242.45
374	324840	59.31	242.45
374	325397	59.41	242.45
374	325954	59.51	242.45
374	326511	59.61	242.45
374	327068	59.71	242.45
374	327625	59.81	242.45
374	328182	59.91	242.45
373	233	1.11	150.16
373	790	1.21	152.938
373	1346	1.31	155.716
373	1903	1.41	158.494
373	2460	1.51	161.272
373	3016	1.61	164.05
373	3572	1.71	166.828
373	4129	1.81	169.606
373	4685	1.91	172.384
373	5252	2.01	175.162
373	5808	2.11	177.94
373	6364	2.21	180.718
373	6920	2.31	183.495
373	7476	2.41	186.273
373	8032	2.51	189.051
373	8588	2.61	191.829
373	9144	2.71	194.607
373	9700	2.81	197.385
373	10256	2.91	200.162
373	10820	3.01	202.94
373	11376	3.11	205.718
373	11932	3.21	208.496
373	12488	3.31	211.274
373	13044	3.41	214.051
373	13600	3.51	216.829
373	14156	3.61	219.607
373	14712	3.71	222.385
373	15268	3.81	225.162
373	15824	3.91	227.94
373	16388	4.01	230.718
373	16944	4.11	233.496
373	17500	4.21	236.273
373	18056	4.31	239.051
373	18612	4.41	241.829
373	19168	4.51	244.607
373	19724	4.61	247.385
373	20280	4.71	250.162
373	20836	4.81	252.94
373	21392	4.91	255.718
373	21957	5.01	258.496
373	22514	5.11	261.273
373	23071	5.21	264.052
373	23628	5.31	266.833
373	24185	5.41	269.618
373	24742	5.51	272.411
373	25299	5.61	275.211
373	25856	5.71	278.021
373	26413	5.81	280.841
373	26970	5.91	283.672
373	27535	6.01	286.515
373	28092	6.11	289.371
373	28649	6.21	292.24
373	29206	6.31	295.121
373	29763	6.41	298.017
373	30320	6.51	300.926
373	30877	6.61	303.849
373	31434	6.71	306.787
373	31991	6.81	309.739
373	32548	6.91	312.705
373	33113	7.01	315.686
373	33670	7.11	318.681
373	34227	7.21	321.692
373	34784	7.31	324.716
373	35341	7.41	327.755
373	35898	7.51	330.803
373	36455	7.61	333.858
373	37012	7.71	336.915
373	37569	7.81	339.971
373	38126	7.91	343.024
373	38691	8.01	346.071
373	39248	8.11	349.111
373	39805	8.21	352.143
373	40362	8.31	355.164
373	40919	8.41	358.176
373	41476	8.51	361.175
373	42033	8.61	364.163
373	42590	8.71	367.138
373	43147	8.81	370.099
373	43704	8.91	373.048
373	44269	9.01	375.983
373	44826	9.11	378.904
373	45383	9.21	381.81
373	45940	9.31	384.703
373	46497	9.41	387.581
373	47054	9.51	390.444
373	47611	9.61	393.293
373	48168	9.71	396.128
373	48725	9.81	398.947
373	49282	9.91	401.752
373	49847	10.01	404.542
373	50404	10.11	407.318
373	50961	10.21	410.083
373	51518	10.31	412.841
373	52075	10.41	415.596
373	52632	10.51	418.352
373	53189	10.61	421.111
373	53746	10.71	423.874
373	54303	10.81	426.645
373	54860	10.91	429.424
373	55425	11.01	432.212
373	55982	11.11	435.011
373	56539	11.21	437.821
373	57096	11.31	440.643
373	57653	11.41	443.478
373	58210	11.51	446.326
373	58767	11.61	449.187
373	59324	11.71	452.062
373	59881	11.81	454.95
373	60438	11.91	457.853
373	61003	12.01	460.77
373	61560	12.11	463.701
373	62117	12.21	466.647
373	62674	12.31	469.607
373	63231	12.41	472.582
373	63788	12.51	475.568
373	64345	12.61	478.563
373	64902	12.71	481.562
373	65459	12.81	484.562
373	66016	12.91	487.559
373	66581	13.01	490.553
373	67138	13.11	493.54
373	67695	13.21	496.519
373	68252	13.31	499.489
373	68809	13.41	502.448
373	69366	13.51	505.397
373	69923	13.61	508.334
373	70480	13.71	511.258
373	71037	13.81	514.17
373	71594	13.91	517.069
373	72159	14.01	519.954
373	72716	14.11	522.825
373	73273	14.21	525.682
373	73830	14.31	528.525
373	74387	14.41	531.353
373	74944	14.51	534.168
373	75501	14.61	536.967
373	76058	14.71	539.752
373	76615	14.81	542.522
373	77172	14.91	545.278
373	77737	15.01	548.019
373	78294	15.11	550.747
373	78851	15.21	553.465
373	79408	15.31	556.179
373	79965	15.41	558.89
373	80522	15.51	561.603
373	81079	15.61	564.32
373	81636	15.71	567.043
373	82193	15.81	569.773
373	82750	15.91	572.512
373	83315	16.01	575.261
373	83872	16.11	578.02
373	84429	16.21	580.792
373	84986	16.31	583.575
373	85543	16.41	586.371
373	86100	16.51	589.181
373	86657	16.61	592.003
373	87214	16.71	594.84
373	87771	16.81	597.69
373	88328	16.91	600.555
373	88893	17.01	603.434
373	89450	17.11	606.327
373	90007	17.21	609.235
373	90564	17.31	612.157
373	91121	17.41	615.094
373	91678	17.51	618.044
373	92235	17.61	621.003
373	92792	17.71	623.967
373	93349	17.81	626.933
373	93906	17.91	629.897
373	94471	18.01	632.858
373	95028	18.11	635.812
373	95585	18.21	638.76
373	96142	18.31	641.698
373	96699	18.41	644.626
373	97256	18.51	647.544
373	97813	18.61	650.45
373	98370	18.71	653.343
373	98927	18.81	656.224
373	99484	18.91	659.092
373	100049	19.01	661.946
373	100606	19.11	664.787
373	101163	19.21	667.613
373	101720	19.31	670.426
373	102277	19.41	673.224
373	102834	19.51	676.008
373	103391	19.61	678.777
373	103948	19.71	681.532
373	104505	19.81	684.272
373	105062	19.91	686.997
373	105627	20.01	689.708
373	106184	20.11	692.406
373	106741	20.21	695.096
373	107298	20.31	697.781
373	107855	20.41	700.466
373	108412	20.51	703.152
373	108969	20.61	705.843
373	109526	20.71	708.539
373	110083	20.81	711.244
373	110640	20.91	713.957
373	111205	21.01	716.681
373	111762	21.11	719.416
373	112319	21.21	722.162
373	112876	21.31	724.921
373	113433	21.41	727.692
373	113990	21.51	730.477
373	114547	21.61	733.275
373	115104	21.71	736.087
373	115661	21.81	738.913
373	116218	21.91	741.753
373	116783	22.01	744.608
373	117340	22.11	747.477
373	117897	22.21	750.36
373	118454	22.31	753.258
373	119011	22.41	756.171
373	119568	22.51	759.097
373	120125	22.61	762.033
373	120682	22.71	764.975
373	121239	22.81	767.919
373	121796	22.91	770.862
373	122361	23.01	773.801
373	122918	23.11	776.735
373	123475	23.21	779.662
373	124032	23.31	782.579
373	124589	23.41	785.488
373	125146	23.51	788.385
373	125703	23.61	791.271
373	126260	23.71	794.145
373	126817	23.81	797.006
373	127374	23.91	799.854
373	127939	24.01	802.689
373	128496	24.11	805.509
373	129053	24.21	808.316
373	129610	24.31	811.109
373	130167	24.41	813.888
373	130724	24.51	816.652
373	131281	24.61	819.402
373	131838	24.71	822.137
373	132395	24.81	824.857
373	132952	24.91	827.563
373	133517	25.01	830.254
373	134074	25.11	832.934
373	134631	25.21	835.605
373	135188	25.31	838.273
373	135745	25.41	840.94
373	136302	25.51	843.609
373	136859	25.61	846.282
373	137416	25.71	848.962
373	137973	25.81	851.65
373	138530	25.91	854.348
373	139095	26.01	857.055
373	139652	26.11	859.774
373	140209	26.21	862.504
373	140766	26.31	865.247
373	141323	26.41	868.003
373	141880	26.51	870.771
373	142437	26.61	873.554
373	142994	26.71	876.35
373	143551	26.81	879.16
373	144108	26.91	881.985
373	144673	27.01	884.824
373	145230	27.11	887.677
373	145787	27.21	890.545
373	146344	27.31	893.427
373	146901	27.41	896.324
373	147458	27.51	899.235
373	148015	27.61	902.156
373	148572	27.71	905.084
373	149129	27.81	908.014
373	149686	27.91	910.943
373	150251	28.01	913.87
373	150808	28.11	916.791
373	151365	28.21	919.705
373	151922	28.31	922.61
373	152479	28.41	925.506
373	153036	28.51	928.391
373	153593	28.61	931.265
373	154150	28.71	934.126
373	154707	28.81	936.976
373	155264	28.91	939.812
373	155829	29.01	942.634
373	156386	29.11	945.443
373	156943	29.21	948.239
373	157500	29.31	951.02
373	158057	29.41	953.786
373	158614	29.51	956.539
373	159171	29.61	959.277
373	159728	29.71	962
373	160285	29.81	964.708
373	160842	29.91	967.402
373	161407	30.01	970.082
373	161964	30.11	972.75
373	162521	30.21	975.41
373	163078	30.31	978.067
373	163635	30.41	980.723
373	164192	30.51	983.382
373	164749	30.61	986.046
373	165306	30.71	988.716
373	165863	30.81	991.394
373	166420	30.91	994.081
373	166985	31.01	996.779
373	167542	31.11	999.488
373	168099	31.21	1002.21
373	168656	31.31	1004.94
373	169213	31.41	1007.69
373	169770	31.51	1010.45
373	170327	31.61	1013.22
373	170884	31.71	1016.01
373	171441	31.81	1018.81
373	171998	31.91	1021.62
373	172563	32.01	1024.45
373	173120	32.11	1027.3
373	173677	32.21	1030.15
373	174234	32.31	1033.03
373	174791	32.41	1035.91
373	175348	32.51	1038.82
373	175905	32.61	1041.73
373	176462	32.71	1044.65
373	177019	32.81	1047.57
373	177576	32.91	1050.49
373	178141	33.01	1053.41
373	178698	33.11	1056.32
373	179255	33.21	1059.23
373	179812	33.31	1062.13
373	180369	33.41	1065.02
373	180926	33.51	1067.89
373	181483	33.61	1070.76
373	182040	33.71	1073.62
373	182597	33.81	1076.46
373	183154	33.91	1079.29
373	183719	34.01	1082.1
373	184276	34.11	1084.91
373	184833	34.21	1087.69
373	185390	34.31	1090.47
373	185947	34.41	1093.23
373	186504	34.51	1095.97
373	187061	34.61	1098.71
373	187618	34.71	1101.42
373	188175	34.81	1104.12
373	188732	34.91	1106.81
373	189297	35.01	1109.48
373	189854	35.11	1112.15
373	190411	35.21	1114.8
373	190968	35.31	1117.45
373	191525	35.41	1120.1
373	192082	35.51	1122.75
373	192639	35.61	1125.41
373	193196	35.71	1128.08
373	193753	35.81	1130.75
373	194310	35.91	1133.43
373	194875	36.01	1136.12
373	195432	36.11	1138.83
373	195989	36.21	1141.54
373	196546	36.31	1144.27
373	197103	36.41	1147.01
373	197660	36.51	1149.76
373	198217	36.61	1152.53
373	198774	36.71	1155.31
373	199331	36.81	1158.11
373	199888	36.91	1160.92
373	200453	37.01	1163.74
373	201010	37.11	1166.58
373	201567	37.21	1169.43
373	202124	37.31	1172.3
373	202681	37.41	1175.18
373	203238	37.51	1178.08
373	203795	37.61	1180.99
373	204352	37.71	1183.9
373	204909	37.81	1186.82
373	205466	37.91	1189.74
373	206031	38.01	1192.65
373	206588	38.11	1195.56
373	207145	38.21	1198.46
373	207702	38.31	1201.36
373	208259	38.41	1204.24
373	208816	38.51	1207.11
373	209373	38.61	1209.98
373	209930	38.71	1212.83
373	210487	38.81	1215.67
373	211044	38.91	1218.49
373	211609	39.01	1221.3
373	212166	39.11	1224.1
373	212723	39.21	1226.89
373	213280	39.31	1229.66
373	213837	39.41	1232.41
373	214394	39.51	1235.16
373	214951	39.61	1237.88
373	215508	39.71	1240.6
373	216065	39.81	1243.29
373	216622	39.91	1245.98
373	217187	40.01	1248.65
373	217744	40.11	1251.31
373	218301	40.21	1253.96
373	218858	40.31	1256.6
373	219415	40.41	1259.25
373	219972	40.51	1261.9
373	220529	40.61	1264.55
373	221086	40.71	1267.22
373	221643	40.81	1269.88
373	222200	40.91	1272.56
373	222765	41.01	1275.25
373	223322	41.11	1277.95
373	223879	41.21	1280.67
373	224436	41.31	1283.39
373	224993	41.41	1286.13
373	225550	41.51	1288.88
373	226107	41.61	1291.64
373	226664	41.71	1294.42
373	227221	41.81	1297.21
373	227778	41.91	1300.02
373	228343	42.01	1302.84
373	228900	42.11	1305.68
373	229457	42.21	1308.53
373	230014	42.31	1311.39
373	230571	42.41	1314.27
373	231128	42.51	1317.17
373	231685	42.61	1320.07
373	232242	42.71	1322.98
373	232799	42.81	1325.9
373	233356	42.91	1328.81
373	233921	43.01	1331.72
373	234478	43.11	1334.63
373	235035	43.21	1337.53
373	235592	43.31	1340.42
373	236149	43.41	1343.31
373	236706	43.51	1346.18
373	237263	43.61	1349.04
373	237820	43.71	1351.89
373	238377	43.81	1354.72
373	238934	43.91	1357.55
373	239499	44.01	1360.36
373	240056	44.11	1363.15
373	240613	44.21	1365.94
373	241170	44.31	1368.71
373	241727	44.41	1371.46
373	242284	44.51	1374.2
373	242841	44.61	1376.92
373	243398	44.71	1379.64
373	243955	44.81	1382.33
373	244512	44.91	1385.01
373	245077	45.01	1387.68
373	245634	45.11	1390.34
373	246191	45.21	1392.98
373	246748	45.31	1395.63
373	247305	45.41	1398.28
373	247862	45.51	1400.92
373	248419	45.61	1403.58
373	248976	45.71	1406.24
373	249533	45.81	1408.9
373	250090	45.91	1411.58
373	250655	46.01	1414.27
373	251212	46.11	1416.97
373	251769	46.21	1419.68
373	252326	46.31	1422.4
373	252883	46.41	1425.14
373	253440	46.51	1427.89
373	253997	46.61	1430.65
373	254554	46.71	1433.43
373	255111	46.81	1436.22
373	255668	46.91	1439.02
373	256233	47.01	1441.84
373	256790	47.11	1444.68
373	257347	47.21	1447.53
373	257904	47.31	1450.39
373	258461	47.41	1453.27
373	259018	47.51	1456.16
373	259575	47.61	1459.06
373	260132	47.71	1461.97
373	260689	47.81	1464.89
373	261246	47.91	1467.8
373	261811	48.01	1470.71
373	262368	48.11	1473.62
373	262925	48.21	1476.52
373	263482	48.31	1479.41
373	264039	48.41	1482.29
373	264596	48.51	1485.16
373	265153	48.61	1488.02
373	265710	48.71	1490.87
373	266267	48.81	1493.7
373	266824	48.91	1496.52
373	267389	49.01	1499.33
373	267946	49.11	1502.13
373	268503	49.21	1504.91
373	269060	49.31	1507.68
373	269617	49.41	1510.43
373	270174	49.51	1513.17
373	270731	49.61	1515.89
373	271288	49.71	1518.6
373	271845	49.81	1521.3
373	272402	49.91	1523.98
373	272967	50.01	1526.64
373	273524	50.11	1529.3
373	274081	50.21	1531.95
373	274638	50.31	1534.59
373	275195	50.41	1537.24
373	275752	50.51	1539.88
373	276309	50.61	1542.54
373	276866	50.71	1545.19
373	277423	50.81	1547.86
373	277980	50.91	1550.54
373	278545	51.01	1553.22
373	279102	51.11	1555.92
373	279659	51.21	1558.63
373	280216	51.31	1561.35
373	280773	51.41	1564.09
373	281330	51.51	1566.84
373	281887	51.61	1569.6
373	282444	51.71	1572.38
373	283001	51.81	1575.17
373	283558	51.91	1577.97
373	284123	52.01	1580.79
373	284680	52.11	1583.62
373	285237	52.21	1586.47
373	285794	52.31	1589.33
373	286351	52.41	1592.21
373	286908	52.51	1595.1
373	287465	52.61	1598.01
373	288022	52.71	1600.92
373	288579	52.81	1603.83
373	289136	52.91	1606.74
373	289701	53.01	1609.65
373	290258	53.11	1612.56
373	290815	53.21	1615.46
373	291372	53.31	1618.35
373	291929	53.41	1621.23
373	292486	53.51	1624.1
373	293043	53.61	1626.96
373	293600	53.71	1629.8
373	294157	53.81	1632.64
373	294714	53.91	1635.46
373	295279	54.01	1638.27
373	295836	54.11	1641.06
373	296393	54.21	1643.84
373	296950	54.31	1646.61
373	297507	54.41	1649.36
373	298064	54.51	1652.1
373	298621	54.61	1654.82
373	299178	54.71	1657.53
373	299735	54.81	1660.23
373	300292	54.91	1662.91
373	300857	55.01	1665.57
373	301414	55.11	1668.23
373	301971	55.21	1670.88
373	302528	55.31	1673.52
373	303085	55.41	1676.16
373	303642	55.51	1678.81
373	304199	55.61	1681.46
373	304756	55.71	1684.12
373	305313	55.81	1686.79
373	305870	55.91	1689.46
373	306435	56.01	1692.15
373	306992	56.11	1694.85
373	307549	56.21	1697.56
373	308106	56.31	1700.28
373	308663	56.41	1703.01
373	309220	56.51	1705.76
373	309777	56.61	1708.52
373	310334	56.71	1711.3
373	310891	56.81	1714.09
373	311448	56.91	1716.89
373	312013	57.01	1719.71
373	312570	57.11	1722.54
373	313127	57.21	1725.39
373	313684	57.31	1728.25
373	314241	57.41	1731.13
373	314798	57.51	1734.02
373	315355	57.61	1736.92
373	315912	57.71	1739.83
373	316469	57.81	1742.75
373	317026	57.91	1745.66
373	317591	58.01	1748.57
373	318148	58.11	1751.47
373	318705	58.21	1754.37
373	319262	58.31	1757.26
373	319819	58.41	1760.14
373	320376	58.51	1763.01
373	320933	58.61	1765.87
373	321490	58.71	1768.72
373	322047	58.81	1771.55
373	322604	58.91	1774.37
373	323169	59.01	1777.18
373	323726	59.11	1779.97
373	324283	59.21	1782.76
373	324840	59.31	1785.52
373	325397	59.41	1788.27
373	325954	59.51	1791.01
373	326511	59.61	1793.74
373	327068	59.71	1796.44
373	327625	59.81	1799.14
373	328182	59.91	1801.82
372	233	1.11	27.78
372	790	1.21	27.7799
372	1346	1.31	27.7798
372	1903	1.41	27.7797
372	2460	1.51	27.7796
372	3016	1.61	27.7795
372	3572	1.71	27.7794
372	4129	1.81	27.7792
372	4685	1.91	27.7791
372	5252	2.01	27.7789
372	5808	2.11	27.7788
372	6364	2.21	27.7787
372	6920	2.31	27.7785
372	7476	2.41	27.7784
372	8032	2.51	27.7783
372	8588	2.61	27.7782
372	9144	2.71	27.7782
372	9700	2.81	27.7781
372	10256	2.91	27.778
372	10820	3.01	27.7779
372	11376	3.11	27.7779
372	11932	3.21	27.7779
372	12488	3.31	27.7778
372	13044	3.41	27.7778
372	13600	3.51	27.7778
372	14156	3.61	27.7777
372	14712	3.71	27.7777
372	15268	3.81	27.7777
372	15824	3.91	27.7777
372	16388	4.01	27.7777
372	16944	4.11	27.7777
372	17500	4.21	27.7777
372	18056	4.31	27.7777
372	18612	4.41	27.7777
372	19168	4.51	27.7777
372	19724	4.61	27.7777
372	20280	4.71	27.7777
372	20836	4.81	27.7777
372	21392	4.91	27.7777
372	21957	5.01	27.7777
372	22514	5.11	27.778
372	23071	5.21	27.7926
372	23628	5.31	27.8297
372	24185	5.41	27.8871
372	24742	5.51	27.9611
372	25299	5.61	28.0488
372	25856	5.71	28.1477
372	26413	5.81	28.2558
372	26970	5.91	28.3713
372	27535	6.01	28.4931
372	28092	6.11	28.62
372	28649	6.21	28.751
372	29206	6.31	28.8854
372	29763	6.41	29.0226
372	30320	6.51	29.1621
372	30877	6.61	29.3035
372	31434	6.71	29.4465
372	31991	6.81	29.5907
372	32548	6.91	29.7359
372	33113	7.01	29.882
372	33670	7.11	30.0288
372	34227	7.21	30.1762
372	34784	7.31	30.3195
372	35341	7.41	30.4419
372	35898	7.51	30.5238
372	36455	7.61	30.564
372	37012	7.71	30.5701
372	37569	7.81	30.5481
372	38126	7.91	30.5032
372	38691	8.01	30.4394
372	39248	8.11	30.36
372	39805	8.21	30.268
372	40362	8.31	30.1656
372	40919	8.41	30.0546
372	41476	8.51	29.9366
372	42033	8.61	29.8129
372	42590	8.71	29.6844
372	43147	8.81	29.5521
372	43704	8.91	29.4166
372	44269	9.01	29.2785
372	44826	9.11	29.1383
372	45383	9.21	28.9963
372	45940	9.31	28.8528
372	46497	9.41	28.7082
372	47054	9.51	28.5626
372	47611	9.61	28.4163
372	48168	9.71	28.2692
372	48725	9.81	28.1217
372	49282	9.91	27.9737
372	49847	10.01	27.827
372	50404	10.11	27.6985
372	50961	10.21	27.6089
372	51518	10.31	27.5614
372	52075	10.41	27.5494
372	52632	10.51	27.5665
372	53189	10.61	27.6074
372	53746	10.71	27.668
372	54303	10.81	27.7446
372	54860	10.91	27.8344
372	55425	11.01	27.935
372	55982	11.11	28.0445
372	56539	11.21	28.1613
372	57096	11.31	28.284
372	57653	11.41	28.4117
372	58210	11.51	28.5433
372	58767	11.61	28.6783
372	59324	11.71	28.8159
372	59881	11.81	28.9558
372	60438	11.91	29.0975
372	61003	12.01	29.2407
372	61560	12.11	29.3851
372	62117	12.21	29.5305
372	62674	12.31	29.6765
372	63231	12.41	29.8111
372	63788	12.51	29.9142
372	64345	12.61	29.9756
372	64902	12.71	29.9991
372	65459	12.81	29.9914
372	66016	12.91	29.9582
372	66581	13.01	29.9039
372	67138	13.11	29.8325
372	67695	13.21	29.7469
372	68252	13.31	29.6498
372	68809	13.41	29.5432
372	69366	13.51	29.4288
372	69923	13.61	29.308
372	70480	13.71	29.1819
372	71037	13.81	29.0515
372	71594	13.91	28.9177
372	72159	14.01	28.7809
372	72716	14.11	28.6417
372	73273	14.21	28.5006
372	73830	14.31	28.3579
372	74387	14.41	28.2139
372	74944	14.51	28.0688
372	75501	14.61	27.9228
372	76058	14.71	27.7762
372	76615	14.81	27.6289
372	77172	14.91	27.4812
372	77737	15.01	27.3406
372	78294	15.11	27.2257
372	78851	15.21	27.1523
372	79408	15.31	27.119
372	79965	15.41	27.1186
372	80522	15.51	27.1453
372	81079	15.61	27.1941
372	81636	15.71	27.2611
372	82193	15.81	27.343
372	82750	15.91	27.4371
372	83315	16.01	27.5413
372	83872	16.11	27.6537
372	84429	16.21	27.7729
372	84986	16.31	27.8976
372	85543	16.41	28.0268
372	86100	16.51	28.1598
372	86657	16.61	28.2958
372	87214	16.71	28.4344
372	87771	16.81	28.575
372	88328	16.91	28.7173
372	88893	17.01	28.8609
372	89450	17.11	29.0057
372	90007	17.21	29.1515
372	90564	17.31	29.2979
372	91121	17.41	29.4372
372	91678	17.51	29.5508
372	92235	17.61	29.6231
372	92792	17.71	29.6556
372	93349	17.81	29.6552
372	93906	17.91	29.628
372	94471	18.01	29.5787
372	95028	18.11	29.5113
372	95585	18.21	29.4291
372	96142	18.31	29.3347
372	96699	18.41	29.2303
372	97256	18.51	29.1177
372	97813	18.61	28.9984
372	98370	18.71	28.8736
372	98927	18.81	28.7442
372	99484	18.91	28.6112
372	100049	19.01	28.4751
372	100606	19.11	28.3365
372	101163	19.21	28.1958
372	101720	19.31	28.0535
372	102277	19.41	27.9098
372	102834	19.51	27.765
372	103391	19.61	27.6192
372	103948	19.71	27.4727
372	104505	19.81	27.3255
372	105062	19.91	27.178
372	105627	20.01	27.0411
372	106184	20.11	26.9346
372	106741	20.21	26.8699
372	107298	20.31	26.8437
372	107855	20.41	26.8492
372	108412	20.51	26.8806
372	108969	20.61	26.9334
372	109526	20.71	27.0036
372	110083	20.81	27.0881
372	110640	20.91	27.1844
372	111205	21.01	27.2904
372	111762	21.11	27.4043
372	112319	21.21	27.5246
372	112876	21.31	27.6503
372	113433	21.41	27.7804
372	113990	21.51	27.914
372	114547	21.61	28.0506
372	115104	21.71	28.1896
372	115661	21.81	28.3305
372	116218	21.91	28.4731
372	116783	22.01	28.617
372	117340	22.11	28.762
372	117897	22.21	28.9079
372	118454	22.31	29.0545
372	119011	22.41	29.1968
372	119568	22.51	29.3172
372	120125	22.61	29.3965
372	120682	22.71	29.4347
372	121239	22.81	29.439
372	121796	22.91	29.4156
372	122361	23.01	29.3695
372	122918	23.11	29.3047
372	123475	23.21	29.2246
372	124032	23.31	29.132
372	124589	23.41	29.029
372	125146	23.51	28.9176
372	125703	23.61	28.7993
372	126260	23.71	28.6753
372	126817	23.81	28.5466
372	127374	23.91	28.414
372	127939	24.01	28.2784
372	128496	24.11	28.1401
372	129053	24.21	27.9998
372	129610	24.31	27.8577
372	130167	24.41	27.7142
372	130724	24.51	27.5695
372	131281	24.61	27.4239
372	131838	24.71	27.2775
372	132395	24.81	27.1304
372	132952	24.91	26.983
372	133517	25.01	26.8485
372	134074	25.11	26.7474
372	134631	25.21	26.6882
372	135188	25.31	26.6666
372	135745	25.41	26.6759
372	136302	25.51	26.7104
372	136859	25.61	26.7657
372	137416	25.71	26.8379
372	137973	25.81	26.9242
372	138530	25.91	27.0219
372	139095	26.01	27.129
372	139652	26.11	27.2438
372	140209	26.21	27.3649
372	140766	26.31	27.4912
372	141323	26.41	27.6218
372	141880	26.51	27.7559
372	142437	26.61	27.8928
372	142994	26.71	28.0321
372	143551	26.81	28.1733
372	144108	26.91	28.3161
372	144673	27.01	28.4601
372	145230	27.11	28.6053
372	145787	27.21	28.7513
372	146344	27.31	28.898
372	146901	27.41	29.0422
372	147458	27.51	29.1669
372	148015	27.61	29.2518
372	148572	27.71	29.2949
372	149129	27.81	29.3032
372	149686	27.91	29.2831
372	150251	28.01	29.2397
372	150808	28.11	29.1772
372	151365	28.21	29.0989
372	151922	28.31	29.0077
372	152479	28.41	28.906
372	153036	28.51	28.7956
372	153593	28.61	28.6781
372	154150	28.71	28.5547
372	154707	28.81	28.4266
372	155264	28.91	28.2945
372	155829	29.01	28.1592
372	156386	29.11	28.0213
372	156943	29.21	27.8812
372	157500	29.31	27.7393
372	158057	29.41	27.596
372	158614	29.51	27.4514
372	159171	29.61	27.3059
372	159728	29.71	27.1596
372	160285	29.81	27.0126
372	160842	29.91	26.8653
372	161407	30.01	26.7322
372	161964	30.11	26.6344
372	162521	30.21	26.5786
372	163078	30.31	26.5598
372	163635	30.41	26.5713
372	164192	30.51	26.6077
372	164749	30.61	26.6645
372	165306	30.71	26.738
372	165863	30.81	26.8253
372	166420	30.91	26.9238
372	166985	31.01	27.0316
372	167542	31.11	27.147
372	168099	31.21	27.2686
372	168656	31.31	27.3953
372	169213	31.41	27.5262
372	169770	31.51	27.6605
372	170327	31.61	27.7976
372	170884	31.71	27.9371
372	171441	31.81	28.0784
372	171998	31.91	28.2213
372	172563	32.01	28.3655
372	173120	32.11	28.5107
372	173677	32.21	28.6568
372	174234	32.31	28.8036
372	174791	32.41	28.949
372	175348	32.51	29.0763
372	175905	32.61	29.1649
372	176462	32.71	29.2116
372	177019	32.81	29.223
372	177576	32.91	29.2054
372	178141	33.01	29.1639
372	178698	33.11	29.103
372	179255	33.21	29.0261
372	179812	33.31	28.9361
372	180369	33.41	28.8352
372	180926	33.51	28.7256
372	181483	33.61	28.6087
372	182040	33.71	28.4858
372	182597	33.81	28.3581
372	183154	33.91	28.2264
372	183719	34.01	28.0913
372	184276	34.11	27.9536
372	184833	34.21	27.8137
372	185390	34.31	27.672
372	185947	34.41	27.5288
372	186504	34.51	27.3844
372	187061	34.61	27.2389
372	187618	34.71	27.0927
372	188175	34.81	26.9458
372	188732	34.91	26.7985
372	189297	35.01	26.6664
372	189854	35.11	26.5704
372	190411	35.21	26.5166
372	190968	35.31	26.4994
372	191525	35.41	26.5123
372	192082	35.51	26.5498
372	192639	35.61	26.6075
372	193196	35.71	26.6818
372	193753	35.81	26.7696
372	194310	35.91	26.8687
372	194875	36.01	26.9769
372	195432	36.11	27.0926
372	195989	36.21	27.2145
372	196546	36.31	27.3414
372	197103	36.41	27.4724
372	197660	36.51	27.6069
372	198217	36.61	27.7442
372	198774	36.71	27.8837
372	199331	36.81	28.0251
372	199888	36.91	28.1681
372	200453	37.01	28.3123
372	201010	37.11	28.4576
372	201567	37.21	28.6037
372	202124	37.31	28.7505
372	202681	37.41	28.8966
372	203238	37.51	29.0254
372	203795	37.61	29.1162
372	204352	37.71	29.1649
372	204909	37.81	29.1779
372	205466	37.91	29.1617
372	206031	38.01	29.1214
372	206588	38.11	29.0614
372	207145	38.21	28.9852
372	207702	38.31	28.8958
372	208259	38.41	28.7955
372	208816	38.51	28.6863
372	209373	38.61	28.5697
372	209930	38.71	28.4471
372	210487	38.81	28.3196
372	211044	38.91	28.1881
372	211609	39.01	28.0532
372	212166	39.11	27.9157
372	212723	39.21	27.7758
372	213280	39.31	27.6342
372	213837	39.41	27.4911
372	214394	39.51	27.3467
372	214951	39.61	27.2013
372	215508	39.71	27.0551
372	216065	39.81	26.9082
372	216622	39.91	26.7611
372	217187	40.01	26.6297
372	217744	40.11	26.535
372	218301	40.21	26.4824
372	218858	40.31	26.4662
372	219415	40.41	26.4799
372	219972	40.51	26.5181
372	220529	40.61	26.5763
372	221086	40.71	26.6511
372	221643	40.81	26.7393
372	222200	40.91	26.8387
372	222765	41.01	26.9472
372	223322	41.11	27.0631
372	223879	41.21	27.1851
372	224436	41.31	27.3122
372	224993	41.41	27.4434
372	225550	41.51	27.5779
372	226107	41.61	27.7153
372	226664	41.71	27.8549
372	227221	41.81	27.9963
372	227778	41.91	28.1394
372	228343	42.01	28.2836
372	228900	42.11	28.4289
372	229457	42.21	28.5751
372	230014	42.31	28.7219
372	230571	42.41	28.8683
372	231128	42.51	28.9979
372	231685	42.61	29.0898
372	232242	42.71	29.1397
372	232799	42.81	29.1536
372	233356	42.91	29.1381
372	233921	43.01	29.0984
372	234478	43.11	29.0389
372	235035	43.21	28.9632
372	235592	43.31	28.8741
372	236149	43.41	28.774
372	236706	43.51	28.665
372	237263	43.61	28.5486
372	237820	43.71	28.4262
372	238377	43.81	28.2989
372	238934	43.91	28.1674
372	239499	44.01	28.0327
372	240056	44.11	27.8951
372	240613	44.21	27.7554
372	241170	44.31	27.6138
372	241727	44.41	27.4707
372	242284	44.51	27.3264
372	242841	44.61	27.181
372	243398	44.71	27.0348
372	243955	44.81	26.8879
372	244512	44.91	26.741
372	245077	45.01	26.61
372	245634	45.11	26.516
372	246191	45.21	26.4641
372	246748	45.31	26.4485
372	247305	45.41	26.4627
372	247862	45.51	26.5012
372	248419	45.61	26.5598
372	248976	45.71	26.6348
372	249533	45.81	26.7233
372	250090	45.91	26.8228
372	250655	46.01	26.9314
372	251212	46.11	27.0475
372	251769	46.21	27.1696
372	252326	46.31	27.2967
372	252883	46.41	27.428
372	253440	46.51	27.5626
372	253997	46.61	27.7
372	254554	46.71	27.8396
372	255111	46.81	27.9812
372	255668	46.91	28.1242
372	256233	47.01	28.2685
372	256790	47.11	28.4138
372	257347	47.21	28.5599
372	257904	47.31	28.7068
372	258461	47.41	28.8534
372	259018	47.51	28.9834
372	259575	47.61	29.0759
372	260132	47.71	29.1263
372	260689	47.81	29.1407
372	261246	47.91	29.1256
372	261811	48.01	29.0863
372	262368	48.11	29.027
372	262925	48.21	28.9515
372	263482	48.31	28.8626
372	264039	48.41	28.7627
372	264596	48.51	28.6538
372	265153	48.61	28.5375
372	265710	48.71	28.4152
372	266267	48.81	28.2879
372	266824	48.91	28.1565
372	267389	49.01	28.0218
372	267946	49.11	27.8843
372	268503	49.21	27.7446
372	269060	49.31	27.603
372	269617	49.41	27.4599
372	270174	49.51	27.3156
372	270731	49.61	27.1703
372	271288	49.71	27.0241
372	271845	49.81	26.8772
372	272402	49.91	26.7303
372	272967	50.01	26.5996
372	273524	50.11	26.506
372	274081	50.21	26.4545
372	274638	50.31	26.4392
372	275195	50.41	26.4537
372	275752	50.51	26.4924
372	276309	50.61	26.5512
372	276866	50.71	26.6263
372	277423	50.81	26.7149
372	277980	50.91	26.8146
372	278545	51.01	26.9232
372	279102	51.11	27.0393
372	279659	51.21	27.1615
372	280216	51.31	27.2887
372	280773	51.41	27.42
372	281330	51.51	27.5546
372	281887	51.61	27.692
372	282444	51.71	27.8317
372	283001	51.81	27.9732
372	283558	51.91	28.1163
372	284123	52.01	28.2606
372	284680	52.11	28.4059
372	285237	52.21	28.5521
372	285794	52.31	28.6989
372	286351	52.41	28.8456
372	286908	52.51	28.9758
372	287465	52.61	29.0686
372	288022	52.71	29.1194
372	288579	52.81	29.134
372	289136	52.91	29.1191
372	289701	53.01	29.0799
372	290258	53.11	29.0208
372	290815	53.21	28.9454
372	291372	53.31	28.8566
372	291929	53.41	28.7567
372	292486	53.51	28.6479
372	293043	53.61	28.5317
372	293600	53.71	28.4094
372	294157	53.81	28.2821
372	294714	53.91	28.1508
372	295279	54.01	28.0161
372	295836	54.11	27.8786
372	296393	54.21	27.7389
372	296950	54.31	27.5973
372	297507	54.41	27.4543
372	298064	54.51	27.3099
372	298621	54.61	27.1646
372	299178	54.71	27.0184
372	299735	54.81	26.8716
372	300292	54.91	26.7247
372	300857	55.01	26.5941
372	301414	55.11	26.5008
372	301971	55.21	26.4495
372	302528	55.31	26.4344
372	303085	55.41	26.4489
372	303642	55.51	26.4878
372	304199	55.61	26.5467
372	304756	55.71	26.6219
372	305313	55.81	26.7105
372	305870	55.91	26.8102
372	306435	56.01	26.9189
372	306992	56.11	27.0351
372	307549	56.21	27.1573
372	308106	56.31	27.2845
372	308663	56.41	27.4158
372	309220	56.51	27.5505
372	309777	56.61	27.6879
372	310334	56.71	27.8276
372	310891	56.81	27.9691
372	311448	56.91	28.1121
372	312013	57.01	28.2564
[...]
542	325578	59.454606648885	7
542	326135	59.554598527594	7
542	326692	59.654603406744	7
542	327249	59.754595285999	7
542	327806	59.854600165014	7
542	328363	59.954605043437	7
541	1070	1.255200118024	7
541	1627	1.355191975576	7
541	2184	1.455170833128	7
541	2740	1.55522769068	7
541	3296	1.655206548231	7
541	3853	1.755185405781	7
541	4409	1.855229263331	7
541	4966	1.955182120881	7
541	5532	2.055251978428	7
541	6088	2.155243835975	7
541	6644	2.255209693518	7
541	7200	2.355175551059	7
541	7756	2.455206408599	7
541	8312	2.555263266137	7
541	8868	2.655255123673	7
541	9424	2.755233981208	7
541	9980	2.855264838738	7
541	10536	2.955256696265	7
541	11100	3.055196553789	7
541	11656	3.15517541131	7
541	12212	3.255193268828	7
541	12768	3.355198126344	7
541	13324	3.455254983855	7
541	13880	3.555220841364	7
541	14436	3.655199698869	7
541	14992	3.755217556372	7
541	15548	3.855222413873	7
541	16104	3.95526627137	7
541	16668	4.055219128865	7
541	17224	4.155262986358	7
541	17780	4.255189843847	7
541	18336	4.355194701333	7
541	18892	4.455238558817	7
541	19448	4.555256416301	7
541	20004	4.655235273782	7
541	20560	4.755214131263	7
541	21116	4.855218988742	7
541	21672	4.955236846221	7
541	22237	5.0552287037	7
541	22794	5.155194561178	7
541	23351	5.255212418669	7
541	23908	5.355230276197	7
541	24465	5.455183133803	7
541	25022	5.555226991549	7
541	25579	5.655205849507	7
541	26136	5.755197707769	7
541	26693	5.85524156644	7
541	27250	5.955246425635	7
541	27815	6.055264285487	7
541	28372	6.155165146137	7
541	28929	6.255248007738	7
541	29486	6.355239870456	7
541	30043	6.455257734466	7
541	30600	6.55517159995	7
541	31157	6.655176467099	7
541	31714	6.755220336114	7
541	32271	6.855212207197	7
541	32828	6.95524308056	7
541	33393	7.055182956415	7
541	33950	7.155252834979	7
541	34507	7.255166716471	7
541	35064	7.355223601105	7
541	35621	7.455202489083	7
541	36178	7.555168380573	7
541	36735	7.65517327571	7
541	37292	7.755243174593	7
541	37849	7.855183077279	7
541	38406	7.955226983795	7
541	38971	8.055205894129	7
541	39528	8.155223808237	7
541	40085	8.255189726042	7
541	40642	8.355233647433	7
541	41199	8.455212572268	7
541	41756	8.555191500377	7
541	42313	8.65520943156	7
541	42870	8.755253365589	7
541	43427	8.855206302212	7
541	43984	8.955185241152	7
541	44549	9.05521618211	7
541	45106	9.15516912477	7
541	45663	9.255265068799	7
541	46220	9.355257013848	7
541	46777	9.455248959557	7
541	47334	9.555214905556	7
541	47891	9.655193851471	7
541	48448	9.755172796923	7
541	49005	9.855242741533	7
541	49562	9.955169684921	7
541	50127	10.055187626714	7
541	50684	10.155205566555	7
541	51241	10.255262504126	7
541	51798	10.355228439147	7
541	52355	10.455207371381	7
541	52912	10.555199300642	7
541	53469	10.655191226783	7
541	54026	10.755261149699	7
541	54583	10.855266069333	7
541	55140	10.955218985665	7
541	55705	11.055210898718	7
541	56262	11.155228808553	7
541	56819	11.255207715268	7
541	57376	11.355186618999	7
541	57933	11.455204519918	7
541	58490	11.555196418227	7
541	59047	11.655214314158	7
541	59604	11.755245207975	7
541	60161	11.855237099962	7
541	60718	11.955189990428	7
541	61283	12.055259879699	7
541	61840	12.155199768123	7
541	62397	12.255256656054	7
541	62954	12.355235543859	7
541	63511	12.455188431906	7
541	64068	12.555245320542	7
541	64625	12.655185210082	7
541	65182	12.755229100814	7
541	65739	12.855181992986	7
541	66296	12.955251886808	7
541	66861	13.055204782452	7
541	67418	13.155222680055	7
541	67975	13.255266579716	7
541	68532	13.355206481494	7
541	69089	13.455250385414	7
541	69646	13.555216291459	7
541	70203	13.655260199579	7
541	70760	13.75522610969	7
541	71317	13.855192021672	7
541	71874	13.955248935373	7
541	72439	14.055253850612	7
541	72996	14.155232767177	7
541	73553	14.255198684835	7
541	74110	14.355229603327	7
541	74667	14.455234522372	7
541	75224	14.555239441674	7
541	75781	14.655166360921	7
541	76338	14.755184279792	7
541	76895	14.855176197954	7
541	77452	14.95519411507	7
541	78017	15.055199030803	7
541	78574	15.155229944838	7
541	79131	15.255208856886	7
541	79688	15.355187766699	7
541	80245	15.455179674068	7
541	80802	15.55524957882	7
541	81359	15.655241480823	7
541	81916	15.755194379987	7
541	82473	15.855186276259	7
541	83030	15.955165169623	7
541	83595	16.0552610601	7
541	84152	16.155226947751	7
541	84709	16.255218832672	7
541	85266	16.355184714991	7
541	85823	16.455163594871	7
541	86380	16.555233472505	7
541	86937	16.655251348115	7
541	87494	16.75517822195	7
541	88051	16.855196094286	7
541	88608	16.955213965414	7
541	89173	17.05524483565	7
541	89730	17.155197705321	7
541	90287	17.25524157477	7
541	90844	17.355194444349	7
541	91401	17.455212314407	7
541	91958	17.555178185287	7
541	92515	17.655235057298	7
541	93072	17.755174930716	7
541	93629	17.85517980578	7
541	94186	17.955262682693	7
541	94751	18.055254561622	7
541	95308	18.155220442693	7
541	95865	18.255264325995	7
541	96422	18.355204211579	7
541	96979	18.455196099461	7
541	97536	18.55522698962	7
541	98093	18.655192881997	7
541	98650	18.755249776501	7
541	99207	18.855215673005	7
541	99764	18.955259571348	7
541	100329	19.055225471344	7
541	100886	19.155230372776	7
541	101443	19.255222275405	7
541	102000	19.355253178963	7
541	102557	19.455219083166	7
541	103114	19.55526298771	7
541	103671	19.65522889228	7
541	104228	19.755246796546	7
541	104785	19.855173700172	7
541	105342	19.955204602816	7
541	105907	20.05526150414	7
541	106464	20.155266403825	7
541	107021	20.255219301585	7
541	107578	20.355185197177	7
541	108135	20.45524209039	7
541	108692	20.555194981054	7
541	109249	20.65523886904	7
541	109806	20.755178754255	7
541	110363	20.85517063665	7
541	110920	20.955253516209	7
541	111485	21.055245392955	7
541	112042	21.155198266949	7
541	112599	21.255216138285	7
541	113156	21.355260007097	7
541	113713	21.455186873546	7
541	114270	21.555191737826	7
541	114827	21.655222600162	7
541	115384	21.7552014608	7
541	115941	21.855180320015	7
541	116498	21.955185178101	7
541	117063	22.055255035372	7
541	117620	22.155194892155	7
541	118177	22.25522574879	7
541	118734	22.35521760563	7
541	119291	22.455261463027	7
541	119848	22.555214321321	7
541	120405	22.655219180828	7
541	120962	22.755250041826	7
541	121519	22.855228904558	7
541	122076	22.955207769229	7
541	122641	23.055238636006	7
541	123198	23.155204505018	7
541	123755	23.255235376357	7
541	124312	23.355188250075	7
541	124869	23.455167126188	7
541	125426	23.555250004676	7
541	125983	23.65516388548	7
541	126540	23.755194768507	7
541	127097	23.855173653632	7
541	127654	23.955191540695	7
541	128219	24.055209429508	7
541	128776	24.155201319856	7
541	129333	24.255245211492	7
541	129890	24.355198104153	7
541	130447	24.45520299755	7
541	131004	24.555246891379	7
541	131561	24.655251785322	7
541	132118	24.755204679049	7
541	132675	24.85519657222	7
541	133232	24.955175464489	7
541	133797	25.055193355519	7
541	134354	25.155250244992	7
541	134911	25.255177132625	7
541	135468	25.355169018171	7
541	136025	25.455251901422	7
541	136582	25.555204782209	7
541	137139	25.655248660403	7
541	137696	25.755227535914	7
541	138253	25.855258408688	7
541	138810	25.955263278713	7
541	139375	26.055177146009	7
541	139932	26.15520801064	7
541	140489	26.255264872698	7
541	141046	26.355217732312	7
541	141603	26.455183589647	7
541	142160	26.555175444897	7
541	142717	26.655206298282	7
541	143274	26.75521115005	7
541	143831	26.855203000474	7
541	144388	26.955259849847	7
541	144953	27.055212698478	7
541	145510	27.155178546696	7
541	146067	27.255170394839	7
541	146624	27.355201243257	7
541	147181	27.455206092302	7
541	147738	27.555210942313	7
541	148295	27.655176793609	7
541	148852	27.755220646469	7
541	149409	27.85523850114	7
541	149966	27.955217357827	7
541	150531	28.055183216696	7
541	151088	28.155240077878	7
541	151645	28.255179941468	7
541	152202	28.355249807515	7
541	152759	28.455241676037	7
541	153316	28.555220547013	7
541	153873	28.655251420386	7
541	154430	28.755178296062	7
541	154987	28.855209173915	7
541	155544	28.955214053785	7
541	156109	29.055179935483	7
541	156666	29.155171818792	7
541	157223	29.255189703466	7
541	157780	29.355246589241	7
541	158337	29.455238475826	7
541	158894	29.55523036292	7
541	159451	29.655170250198	7
541	160008	29.755253137328	7
541	160565	29.85521902397	7
541	161122	29.955249909777	7
541	161687	30.055176794409	7
541	162244	30.155246677547	7
541	162801	30.255238558908	7
541	163358	30.355256438248	7
541	163915	30.455183315357	7
541	164472	30.555188190067	7
541	165029	30.655219062247	7
541	165586	30.755184931806	7
541	166143	30.855241798691	7
541	166700	30.955259662888	7
541	167265	31.055199524417	7
541	167822	31.155217383339	7
541	168379	31.255248239748	7
541	168936	31.355266093772	7
541	169493	31.455166945572	7
541	170050	31.555236795341	7
541	170607	31.655202643301	7
541	171164	31.755220489697	7
541	171721	31.855173334801	7
541	172278	31.955165178903	7
541	172843	32.055235022313	7
541	173400	32.155265865357	7
541	173957	32.255244708375	7
541	174514	32.355197551712	7
541	175071	32.455163395716	7
541	175628	32.555233240733	7
541	176185	32.655212087078	7
541	176742	32.755177935035	7
541	177299	32.855234784849	7
541	177856	32.955265636727	7
541	178421	33.055179490839	7
541	178978	33.155262347313	7
541	179535	33.255228206245	7
541	180092	33.355259067687	7
541	180649	33.455172931654	7
541	181206	33.555255798127	7
541	181763	33.655260667049	7
541	182320	33.755213538326	7
541	182877	33.855218411834	7
541	183434	33.955197287411	7
541	183999	34.055202164869	7
541	184556	34.15518104399	7
541	185113	34.255237924529	7
541	185670	34.355164806218	7
541	186227	34.455208688771	7
541	186784	34.555213571878	7
541	187341	34.65516645522	7
541	187898	34.755236338461	7
541	188455	34.855202221261	7
541	189012	34.955168103272	7
541	189577	35.055172984151	7
541	190134	35.155177863582	7
541	190691	35.255169741279	7
541	191248	35.355252616999	7
541	191805	35.45524449053	7
541	192362	35.555223361706	7
541	192919	35.655254230395	7
541	193476	35.755259096504	7
541	194033	35.855263959982	7
541	194590	35.955242820811	7
541	195155	36.055260679013	7
541	195712	36.155200534647	7
541	196269	36.255192387804	7
541	196826	36.355171238615	7
541	197383	36.455202087238	7
541	197940	36.555245933865	7
541	198497	36.655211778718	7
541	199054	36.75524262204	7
541	199611	36.855169464101	7
541	200168	36.955213305192	7
541	200733	37.055192145624	7
541	201290	37.155222985719	7
541	201847	37.255240825812	7
541	202404	37.355232666252	7
541	202961	37.455250507389	7
541	203518	37.555229349563	7
541	204075	37.655208193095	7
541	204632	37.755252038266	7
541	205189	37.855178885321	7
541	205746	37.955235734469	7
541	206311	38.055175585878	7
541	206868	38.155219439682	7
541	207425	38.255198295971	7
541	207982	38.355203154801	7
541	208539	38.455247016186	7
541	209096	38.555238880108	7
541	209653	38.655204746509	7
541	210210	38.755170615296	7
541	210767	38.855214486344	7
541	211324	38.955232359492	7
541	211889	39.05518523455	7
541	212446	39.155255111302	7
541	213003	39.255220989503	7
541	213560	39.355264868881	7
541	214117	39.455217749152	7
541	214674	39.555235630007	7
541	215231	39.655201511123	7
541	215788	39.755219392169	7
541	216345	39.8552502728	7
541	216902	39.955190152667	7
541	217467	40.055260031428	7
541	218024	40.155238908765	7
541	218581	40.255178784397	7
541	219138	40.355222658073	7
541	219695	40.455214529591	7
541	220252	40.555180398779	7
541	220809	40.655263265503	7
541	221366	40.755177129674	7
541	221923	40.855194991236	7
541	222480	40.955225850175	7
541	223045	41.055204706511	7
541	223602	41.155222560301	7
541	224159	41.255227411639	7
541	224716	41.355219260653	7
541	225273	41.455211107502	7
541	225830	41.555163952378	7
541	226387	41.655181795499	7
541	226944	41.75526463711	7
541	227501	41.855165477479	7
541	228058	41.955235316901	7
541	228623	42.055240155681	7
541	229180	42.155257994144	7
541	229737	42.255236832623	7
541	230294	42.355254671466	7
541	230851	42.455207511021	7
541	231408	42.555238351632	7
541	231965	42.655256193615	7
541	232522	42.755248037253	7
541	233079	42.855187882794	7
541	233636	42.955231730446	7
541	234201	43.055236580376	7
541	234758	43.155189432717	7
541	235315	43.255246287561	7
541	235872	43.355199144964	7
541	236429	43.455191004942	7
541	236986	43.555234867473	7
541	237543	43.6551877325	7
541	238100	43.755205599932	7
541	238657	43.855171469642	7
541	239214	43.95524134147	7
541	239779	44.055207215224	7
541	240336	44.155199090689	7
541	240893	44.255255967618	7
541	241450	44.355260845744	7
541	242007	44.455265724779	7
541	242564	44.555244604413	7
541	243121	44.655210484324	7
541	243678	44.75520236418	7
541	244235	44.855220243635	7
541	244792	44.955212122343	7
541	245357	45.055242999959	7
541	245914	45.155182876166	7
541	246471	45.25518775068	7
541	247028	45.355192623257	7
541	247585	45.455210493687	7
541	248142	45.555254361801	7
541	248699	45.655246227467	7
541	249256	45.755212090594	7
541	249813	45.855164951129	7
541	250370	45.955260809052	7
541	250935	46.055213664385	7
541	251492	46.155218517187	7
541	252049	46.255184367549	7
541	252606	46.355215215601	7
541	253163	46.455220061502	7
541	253720	46.555198905442	7
541	254277	46.655216747639	7
541	254834	46.755208588339	7
541	255391	46.855174427811	7
541	255948	46.955257266344	7
541	256513	47.055236104246	7
541	257070	47.155214941842	7
541	257627	47.255245779464	7
541	258184	47.35519861746	7
541	258741	47.455190456178	7
541	259298	47.555247295961	7
541	259855	47.655252137128	7
541	260412	47.755191979959	7
541	260969	47.855183824703	7
541	261526	47.955227671565	7
541	262091	48.055245520717	7
541	262648	48.15523737229	7
541	263205	48.255164226375	7
541	263762	48.355234083028	7
541	264319	48.455212942263	7
541	264876	48.555178804064	7
541	265433	48.655261668369	7
541	265990	48.755188535086	7
541	266547	48.85520640409	7
541	267104	48.955198275221	7
541	267669	49.055242148288	7
541	268226	49.155208023073	7
541	268783	49.255251899331	7
541	269340	49.355256776794	7
541	269897	49.455196655172	7
541	270454	49.555227534157	7
541	271011	49.655206413429	7
541	271568	49.755237292652	7
541	272125	49.855203171483	7
541	272682	49.95518204957	7
541	273247	50.055264926574	7
541	273804	50.155191802175	7
541	274361	50.255235676092	7
541	274918	50.355188548077	7
541	275475	50.455232417922	7
541	276032	50.555250285457	7
541	276589	50.655190150554	7
541	277146	50.755221013118	7
541	277703	50.855212873095	7
541	278260	50.955191730469	7
541	278825	51.055261585262	7
541	279382	51.15517543753	7
541	279939	51.255258287367	7
541	280496	51.355172134899	7
541	281053	51.455202980287	7
541	281610	51.555168823721	7
541	282167	51.655212665417	7
541	282724	51.755256505624	7
541	283281	51.855248344609	7
541	283838	51.955175182662	7
541	284403	52.05524502009	7
541	284960	52.155236857216	7
541	285517	52.255228694375	7
541	286074	52.355233531913	7
541	286631	52.45518637018	7
541	287188	52.555178209519	7
541	287745	52.655235050243	7
541	288302	52.755174892638	7
541	288859	52.85516673695	7
541	289416	52.955184583386	7
541	289981	53.055189432118	7
541	290538	53.155246283274	7
541	291095	53.255238136949	7
541	291652	53.355177993196	7
541	292209	53.455221852034	7
541	292766	53.555174713439	7
541	293323	53.655192577355	7
541	293880	53.75523644369	7
541	294437	53.855163312316	7
541	294994	53.955207183072	7
541	295559	54.05517305577	7
541	296116	54.155242930193	7
541	296673	54.255195806092	7
541	297230	54.355200683201	7
541	297787	54.45524456123	7
541	298344	54.555210439873	7
541	298901	54.655228318805	7
541	299458	54.755246197691	7
541	300015	54.855173076189	7
541	300572	54.955216953948	7
541	301137	55.055208830627	7
541	301694	55.155226705909	7
541	302251	55.255257579509	7
541	302808	55.355249451184	7
541	303365	55.455189320722	7
541	303922	55.555246187955	7
541	304479	55.65525105275	7
541	305036	55.755216915019	7
541	305593	55.855247774704	7
541	306150	55.955265631789	7
541	306715	56.055192486295	7
541	307272	56.155210338282	7
541	307829	56.255241187841	7
541	308386	56.355259035098	7
541	308943	56.455263880215	7
541	309500	56.55524272338	7
541	310057	56.655182564814	7
541	310614	56.755265404761	7
541	311171	56.855244243489	7
541	311728	56.955236081287	7
541	312293	57.055214918465	7
541	312850	57.155180755344	7
541	313407	57.255250592261	7
541	313964	57.355190429559	7
541	314521	57.455234267587	7
541	315078	57.555200106689	7
541	315635	57.65516594718	7
541	316192	57.755261789346	7
541	316749	57.855253633432	7
541	317306	57.955245479646	7
541	317871	58.055198328156	7
541	318428	58.155177179095	7
541	318985	58.255221032557	7
541	319542	58.355173888594	7
541	320099	58.455217747224	7
541	320656	58.555183608423	7
541	321213	58.655188472137	7
541	321770	58.75519333827	7
541	322327	58.855172206696	7
541	322884	58.955229077259	7
541	323449	59.055246949765	7
541	324006	59.155186823998	7
541	324563	59.255204699709	7
541	325120	59.355248576633	7
541	325677	59.45520145448	7
541	326234	59.555232332942	7
541	326791	59.655237211696	7
541	327348	59.755177090408	7
541	327905	59.855259968733	7
541	328462	59.955225846319	7
540	5115	2	0
540	10685	3	0
540	16253	4	0
540	21822	5	0
540	27399	6	0
540	32977	7	0
540	38555	8	0
540	44133	9	0
540	49711	10	0
540	55289	11	0
540	60867	12	0
540	66445	13	0
540	72023	14	0
540	77601	15	0
540	83179	16	0
540	88757	17	0
540	94335	18	0
540	99913	19	0
540	105491	20	0
540	111069	21	0
540	116647	22	0
540	122225	23	0
540	127803	24	0
540	133381	25	0
540	138959	26	0
540	144537	27	0
540	150115	28	0
540	155693	29	0
540	161271	30	0
540	166849	31	0
540	172427	32	0
540	178005	33	0
540	183583	34	0
540	189161	35	0
540	194739	36	0
540	200317	37	0
540	205895	38	0
540	211473	39	0
540	217051	40	0
540	222629	41	0
540	228207	42	0
540	233785	43	0
540	239363	44	0
540	244941	45	0
540	250519	46	0
540	256097	47	0
540	261675	48	0
540	267253	49	0
540	272831	50	0
540	278409	51	0
540	283987	52	0
540	289565	53	0
540	295143	54	0
540	300721	55	0
540	306299	56	0
540	311877	57	0
540	317455	58	0
540	323033	59	0
540	328611	60	0
539	5115	2	0.034729
539	10685	3	0.03969
539	16253	4	0.03969
539	21822	5	0.03969
539	27399	6	0.03969
539	32977	7	0.03969
539	38555	8	0.03969
539	44133	9	0.03969
539	49711	10	0.03969
539	55289	11	0.03969
539	60867	12	0.03969
539	66445	13	0.03969
539	72023	14	0.03969
539	77601	15	0.03969
539	83179	16	0.03969
539	88757	17	0.03969
539	94335	18	0.03969
539	99913	19	0.03969
539	105491	20	0.03969
539	111069	21	0.03969
539	116647	22	0.03969
539	122225	23	0.03969
539	127803	24	0.03969
539	133381	25	0.03969
539	138959	26	0.03969
539	144537	27	0.03969
539	150115	28	0.03969
539	155693	29	0.03969
539	161271	30	0.03969
539	166849	31	0.03969
539	172427	32	0.03969
539	178005	33	0.03969
539	183583	34	0.03969
539	189161	35	0.03969
539	194739	36	0.03969
539	200317	37	0.03969
539	205895	38	0.03969
539	211473	39	0.03969
539	217051	40	0.03969
539	222629	41	0.03969
539	228207	42	0.03969
539	233785	43	0.03969
539	239363	44	0.03969
539	244941	45	0.03969
539	250519	46	0.03969
539	256097	47	0.03969
539	261675	48	0.03969
539	267253	49	0.03969
539	272831	50	0.03969
539	278409	51	0.03969
539	283987	52	0.03969
539	289565	53	0.03969
539	295143	54	0.03969
539	300721	55	0.03969
539	306299	56	0.03969
539	311877	57	0.03969
539	317455	58	0.03969
539	323033	59	0.03969
539	328611	60	0.03969
538	5115	2	7
538	10685	3	7
538	16253	4	7
538	21822	5	7
538	27399	6	7
538	32977	7	7
538	38555	8	7
538	44133	9	7
538	49711	10	7
538	55289	11	7
538	60867	12	7
538	66445	13	7
538	72023	14	7
538	77601	15	7
538	83179	16	7
538	88757	17	7
538	94335	18	7
538	99913	19	7
538	105491	20	7
538	111069	21	7
538	116647	22	7
538	122225	23	7
538	127803	24	7
538	133381	25	7
538	138959	26	7
538	144537	27	7
538	150115	28	7
538	155693	29	7
538	161271	30	7
538	166849	31	7
538	172427	32	7
538	178005	33	7
538	183583	34	7
538	189161	35	7
538	194739	36	7
538	200317	37	7
538	205895	38	7
538	211473	39	7
538	217051	40	7
538	222629	41	7
538	228207	42	7
538	233785	43	7
538	239363	44	7
538	244941	45	7
538	250519	46	7
538	256097	47	7
538	261675	48	7
538	267253	49	7
538	272831	50	7
538	278409	51	7
538	283987	52	7
538	289565	53	7
538	295143	54	7
538	300721	55	7
538	306299	56	7
538	311877	57	7
538	317455	58	7
538	323033	59	7
538	328611	60	7
