version 2
run SinusoidalNoGui-0-20210511-11:43:33-41305
attr beaconInterval 0.1
attr configname SinusoidalNoGui
attr controller 3
attr datetime 20210511-11:43:33
attr experiment SinusoidalNoGui
attr headway 0.1
attr inifile omnetpp.ini
attr iterationvars "$thermalNoise=-95, $txPower=100, $packetLossRate=0, $beaconInterval=0.1, $controller=3, $sController=\"CONSENSUS\", $headway=0.1, $0=15, $1=0.8, $nCars=8, $platoonSize=8, $nLanes=1, $ploegH=0.5, $leaderHeadway=1.2, $leaderSpeed=100, $packetSize=200"
attr iterationvarsf thermalNoise=-95,txPower=100,packetLossRate=0,beaconInterval=0.1,controller=3,sController=CONSENSUS,headway=0.1,15,0.8,nCars=8,platoonSize=8,nLanes=1,ploegH=0.5,leaderHeadway=1.2,leaderSpeed=100,packetSize=200-
attr leaderHeadway 1.2
attr leaderSpeed 100
attr measurement "$thermalNoise=-95, $txPower=100, $packetLossRate=0, $beaconInterval=0.1, $controller=3, $sController=\"CONSENSUS\", $headway=0.1, $0=15, $1=0.8, $nCars=8, $platoonSize=8, $nLanes=1, $ploegH=0.5, $leaderHeadway=1.2, $leaderSpeed=100, $packetSize=200"
attr nCars 8
attr nLanes 1
attr network Highway
attr packetLossRate 0
attr packetSize 200
attr platoonSize 8
attr ploegH 0.5
attr processid 41305
attr repetition 0
attr replication #0
attr resultdir results
attr runnumber 0
attr sController "\"CONSENSUS\""
attr seedset 0
attr thermalNoise -95
attr txPower 100
param **.coreDebug false
param **.debug false
param **.headway 0.1s
param **.numberOfCars 8
param **.numberOfCarsPerPlatoon 8
param **.numberOfLanes 1
param **.numericController 3
param **.seed 0
param **.traffic.nCars 8
param **.traffic.nLanes 1
param **.traffic.platoonInsertDistance 15m
param **.traffic.platoonInsertHeadway 0.8s
param **.traffic.platoonInsertSpeed 100kmph
param **.traffic.platoonInsertTime "1 s"
param **.traffic.platoonLeaderHeadway 1.2s
param **.traffic.platoonSize 8
param **.traffic.platooningVType "\"vtypeauto\""
param **.traffic_type "\"PlatoonsTrafficManager\""
param *.**.nic.mac1609_4.bitrate 6Mbps
param *.**.nic.mac1609_4.txPower 100mW
param *.**.nic.mac1609_4.useServiceChannel false
param *.**.nic.phy80211p.analogueModels "xmldoc(\"config.xml\")"
param *.**.nic.phy80211p.decider "xmldoc(\"config.xml\")"
param *.**.nic.phy80211p.maxTXPower 100mW
param *.**.nic.phy80211p.sensitivity -94dBm
param *.**.nic.phy80211p.thermalNoise -95dBm
param *.**.nic.phy80211p.usePropagationDelay true
param *.**.nic.phy80211p.useThermalNoise true
param *.annotations.draw false
param *.connectionManager.drawMaxIntfDist false
param *.connectionManager.maxInterfDist 2600m
param *.connectionManager.sendDirect true
param *.manager.autoShutdown true
param *.manager.configFile "\"./sumocfg/freeway.sumo.cfg\""
param *.manager.host "\"localhost\""
param *.manager.margin 25
param *.manager.moduleDisplayString "\"\""
param *.manager.moduleName "\"node\""
param *.manager.moduleType "\"org.car2x.veins.modules.application.platooning.PlatoonCar\""
param *.manager.updateInterval 0.01s
param *.manager.useGui true
param *.node[*].appl_type "\"SimplePlatooningApp\""
param *.node[*].helper.nCars 8
param *.node[*].helper.nLanes 1
param *.node[*].helper.platoonSize 8
param *.node[*].helper_type "\"PositionHelper\""
param *.node[*].mobility.x 0
param *.node[*].mobility.y 0
param *.node[*].mobility.z 1.895
param *.node[*].prot.beaconingInterval 0.1s
param *.node[*].prot.packetSize 200
param *.node[*].prot.priority 4
param *.node[*].protocol_type "\"SimplePlatooningBeaconing\""
param *.node[*].scenario.accHeadway 0.1s
param *.node[*].scenario.caccC1 0.5
param *.node[*].scenario.caccOmegaN "0.2 Hz"
param *.node[*].scenario.caccXi 1
param *.node[*].scenario.controller "\"CONSENSUS\""
param *.node[*].scenario.leaderHeadway 1.2s
param *.node[*].scenario.leaderOscillationFrequency "0.2 Hz"
param *.node[*].scenario.leaderSpeed 100kmph
param *.node[*].scenario.oscillationAmplitude "35 kmph"
param *.node[*].scenario.ploegH 0.5s
param *.node[*].scenario.ploegKd 0.7
param *.node[*].scenario.ploegKp 0.2
param *.node[*].scenario.startOscillating "5 s"
param *.node[*].scenario.useControllerAcceleration true
param *.node[*].scenario.useRealisticEngine false
param *.node[*].scenario_type "\"SinusoidalScenario\""
param *.node[*].unicast.packetLossRate 0
param *.obstacles.debug false
param *.playgroundSizeX 65000m
param *.playgroundSizeY 25000m
param *.playgroundSizeZ 50m
param *.world.use2D false
param *.world.useTorus false

vector 1  Highway.node[0].appl  distance  ETV
vector 2  Highway.node[0].appl  relativeSpeed  ETV
vector 3  Highway.node[0].appl  nodeId  ETV
vector 7  Highway.node[0].appl  acceleration  ETV
vector 8  Highway.node[0].appl  controllerAcceleration  ETV
vector 4  Highway.node[0].appl  speed  ETV
vector 5  Highway.node[0].appl  posx  ETV
vector 6  Highway.node[0].appl  posy  ETV
vector 24  Highway.node[1].appl  distance  ETV
vector 25  Highway.node[1].appl  relativeSpeed  ETV
vector 26  Highway.node[1].appl  nodeId  ETV
vector 30  Highway.node[1].appl  acceleration  ETV
vector 31  Highway.node[1].appl  controllerAcceleration  ETV
vector 27  Highway.node[1].appl  speed  ETV
vector 28  Highway.node[1].appl  posx  ETV
vector 29  Highway.node[1].appl  posy  ETV
vector 47  Highway.node[2].appl  distance  ETV
vector 48  Highway.node[2].appl  relativeSpeed  ETV
vector 49  Highway.node[2].appl  nodeId  ETV
vector 53  Highway.node[2].appl  acceleration  ETV
vector 54  Highway.node[2].appl  controllerAcceleration  ETV
vector 50  Highway.node[2].appl  speed  ETV
vector 51  Highway.node[2].appl  posx  ETV
vector 52  Highway.node[2].appl  posy  ETV
vector 70  Highway.node[3].appl  distance  ETV
vector 71  Highway.node[3].appl  relativeSpeed  ETV
vector 72  Highway.node[3].appl  nodeId  ETV
vector 76  Highway.node[3].appl  acceleration  ETV
vector 77  Highway.node[3].appl  controllerAcceleration  ETV
vector 73  Highway.node[3].appl  speed  ETV
vector 74  Highway.node[3].appl  posx  ETV
vector 75  Highway.node[3].appl  posy  ETV
vector 93  Highway.node[4].appl  distance  ETV
vector 94  Highway.node[4].appl  relativeSpeed  ETV
vector 95  Highway.node[4].appl  nodeId  ETV
vector 99  Highway.node[4].appl  acceleration  ETV
vector 100  Highway.node[4].appl  controllerAcceleration  ETV
vector 96  Highway.node[4].appl  speed  ETV
vector 97  Highway.node[4].appl  posx  ETV
vector 98  Highway.node[4].appl  posy  ETV
vector 116  Highway.node[5].appl  distance  ETV
vector 117  Highway.node[5].appl  relativeSpeed  ETV
vector 118  Highway.node[5].appl  nodeId  ETV
vector 122  Highway.node[5].appl  acceleration  ETV
vector 123  Highway.node[5].appl  controllerAcceleration  ETV
vector 119  Highway.node[5].appl  speed  ETV
vector 120  Highway.node[5].appl  posx  ETV
vector 121  Highway.node[5].appl  posy  ETV
vector 139  Highway.node[6].appl  distance  ETV
vector 140  Highway.node[6].appl  relativeSpeed  ETV
vector 141  Highway.node[6].appl  nodeId  ETV
vector 145  Highway.node[6].appl  acceleration  ETV
vector 146  Highway.node[6].appl  controllerAcceleration  ETV
vector 142  Highway.node[6].appl  speed  ETV
vector 143  Highway.node[6].appl  posx  ETV
vector 144  Highway.node[6].appl  posy  ETV
vector 162  Highway.node[7].appl  distance  ETV
vector 163  Highway.node[7].appl  relativeSpeed  ETV
vector 164  Highway.node[7].appl  nodeId  ETV
vector 168  Highway.node[7].appl  acceleration  ETV
vector 169  Highway.node[7].appl  controllerAcceleration  ETV
vector 165  Highway.node[7].appl  speed  ETV
vector 166  Highway.node[7].appl  posx  ETV
vector 167  Highway.node[7].appl  posy  ETV
vector 84  Highway.node[3].prot  frontDelay  ETV
vector 82  Highway.node[3].prot  frontDelayId  ETV
vector 61  Highway.node[2].prot  frontDelay  ETV
vector 59  Highway.node[2].prot  frontDelayId  ETV
vector 176  Highway.node[7].prot  frontDelay  ETV
vector 174  Highway.node[7].prot  frontDelayId  ETV
vector 37  Highway.node[1].prot  leaderDelay  ETV
vector 35  Highway.node[1].prot  leaderDelayId  ETV
vector 38  Highway.node[1].prot  frontDelay  ETV
vector 36  Highway.node[1].prot  frontDelayId  ETV
vector 60  Highway.node[2].prot  leaderDelay  ETV
vector 58  Highway.node[2].prot  leaderDelayId  ETV
vector 83  Highway.node[3].prot  leaderDelay  ETV
vector 81  Highway.node[3].prot  leaderDelayId  ETV
vector 106  Highway.node[4].prot  leaderDelay  ETV
vector 104  Highway.node[4].prot  leaderDelayId  ETV
vector 129  Highway.node[5].prot  leaderDelay  ETV
vector 127  Highway.node[5].prot  leaderDelayId  ETV
vector 152  Highway.node[6].prot  leaderDelay  ETV
vector 150  Highway.node[6].prot  leaderDelayId  ETV
vector 175  Highway.node[7].prot  leaderDelay  ETV
vector 173  Highway.node[7].prot  leaderDelayId  ETV
vector 130  Highway.node[5].prot  frontDelay  ETV
vector 128  Highway.node[5].prot  frontDelayId  ETV
vector 107  Highway.node[4].prot  frontDelay  ETV
vector 105  Highway.node[4].prot  frontDelayId  ETV
vector 153  Highway.node[6].prot  frontDelay  ETV
vector 151  Highway.node[6].prot  frontDelayId  ETV
vector 9  Highway.node[0].prot  nodeId  ETV
vector 10  Highway.node[0].prot  busyTime  ETV
vector 11  Highway.node[0].prot  collisions  ETV
vector 32  Highway.node[1].prot  nodeId  ETV
vector 33  Highway.node[1].prot  busyTime  ETV
vector 34  Highway.node[1].prot  collisions  ETV
vector 55  Highway.node[2].prot  nodeId  ETV
vector 56  Highway.node[2].prot  busyTime  ETV
vector 57  Highway.node[2].prot  collisions  ETV
vector 78  Highway.node[3].prot  nodeId  ETV
vector 79  Highway.node[3].prot  busyTime  ETV
vector 80  Highway.node[3].prot  collisions  ETV
vector 101  Highway.node[4].prot  nodeId  ETV
vector 102  Highway.node[4].prot  busyTime  ETV
vector 103  Highway.node[4].prot  collisions  ETV
vector 124  Highway.node[5].prot  nodeId  ETV
vector 125  Highway.node[5].prot  busyTime  ETV
vector 126  Highway.node[5].prot  collisions  ETV
vector 147  Highway.node[6].prot  nodeId  ETV
vector 148  Highway.node[6].prot  busyTime  ETV
vector 149  Highway.node[6].prot  collisions  ETV
vector 170  Highway.node[7].prot  nodeId  ETV
vector 171  Highway.node[7].prot  busyTime  ETV
vector 172  Highway.node[7].prot  collisions  ETV
8	233	1.11	-0.00218518
8	790	1.21	-0.00213419
8	1346	1.31	-0.00205408
8	1903	1.41	-0.00195152
8	2460	1.51	-0.00183238
8	3016	1.61	-0.00170178
8	3572	1.71	-0.00156412
8	4129	1.81	-0.00142314
8	4685	1.91	-0.00128196
8	5252	2.01	-0.00114315
8	5808	2.11	-0.00100877
8	6364	2.21	-0.000880447
8	6920	2.31	-0.000759381
8	7476	2.41	-0.000646445
8	8032	2.51	-0.000542204
8	8588	2.61	-0.000446965
8	9144	2.71	-0.000360819
8	9700	2.81	-0.000283678
8	10256	2.91	-0.000215307
8	10820	3.01	-0.000155357
8	11376	3.11	-0.000103391
8	11932	3.21	-5.89069e-05
8	12488	3.31	-2.13575e-05
8	13044	3.41	9.82919e-06
8	13600	3.51	3.52368e-05
8	14156	3.61	5.54479e-05
8	14712	3.71	7.10335e-05
8	15268	3.81	8.25451e-05
8	15824	3.91	9.05081e-05
8	16388	4.01	9.54172e-05
8	16944	4.11	9.7733e-05
8	17500	4.21	9.78798e-05
8	18056	4.31	9.62447e-05
8	18612	4.41	9.31771e-05
8	19168	4.51	8.89894e-05
8	19724	4.61	8.39579e-05
8	20280	4.71	7.83245e-05
8	20836	4.81	7.22983e-05
8	21392	4.91	6.6058e-05
8	21957	5.01	5.9754e-05
8	22514	5.11	1.21855
8	23071	5.21	1.5
8	23628	5.31	1.5
8	24185	5.41	1.5
8	24742	5.51	1.5
8	25299	5.61	1.5
8	25856	5.71	1.5
8	26413	5.81	1.5
8	26970	5.91	1.5
8	27535	6.01	1.5
8	28092	6.11	1.5
8	28649	6.21	1.5
8	29206	6.31	1.5
8	29763	6.41	1.5
8	30320	6.51	1.5
8	30877	6.61	1.5
8	31434	6.71	1.5
8	31991	6.81	1.5
8	32548	6.91	1.5
8	33113	7.01	1.5
8	33670	7.11	1.5
8	34227	7.21	1.19534
8	34784	7.31	-0.110117
8	35341	7.41	-1.43481
8	35898	7.51	-1.5
8	36455	7.61	-1.5
8	37012	7.71	-1.5
8	37569	7.81	-1.5
8	38126	7.91	-1.5
8	38691	8.01	-1.5
8	39248	8.11	-1.5
8	39805	8.21	-1.5
8	40362	8.31	-1.5
8	40919	8.41	-1.5
8	41476	8.51	-1.5
8	42033	8.61	-1.5
8	42590	8.71	-1.5
8	43147	8.81	-1.5
8	43704	8.91	-1.5
8	44269	9.01	-1.5
8	44826	9.11	-1.5
8	45383	9.21	-1.5
8	45940	9.31	-1.5
8	46497	9.41	-1.5
8	47054	9.51	-1.5
8	47611	9.61	-1.5
8	48168	9.71	-1.5
8	48725	9.81	-1.5
8	49282	9.91	-1.4292
8	49847	10.01	-0.063558
8	50404	10.11	1.28627
8	50961	10.21	1.5
8	51518	10.31	1.5
8	52075	10.41	1.5
8	52632	10.51	1.5
8	53189	10.61	1.5
8	53746	10.71	1.5
8	54303	10.81	1.5
8	54860	10.91	1.5
8	55425	11.01	1.5
8	55982	11.11	1.5
8	56539	11.21	1.5
8	57096	11.31	1.5
8	57653	11.41	1.5
8	58210	11.51	1.5
8	58767	11.61	1.5
8	59324	11.71	1.5
8	59881	11.81	1.5
8	60438	11.91	1.5
8	61003	12.01	1.5
8	61560	12.11	1.5
8	62117	12.21	1.5
8	62674	12.31	0.533523
8	63231	12.41	-0.802356
8	63788	12.51	-1.5
8	64345	12.61	-1.5
8	64902	12.71	-1.5
8	65459	12.81	-1.5
8	66016	12.91	-1.5
8	66581	13.01	-1.5
8	67138	13.11	-1.5
8	67695	13.21	-1.5
8	68252	13.31	-1.5
8	68809	13.41	-1.5
8	69366	13.51	-1.5
8	69923	13.61	-1.5
8	70480	13.71	-1.5
8	71037	13.81	-1.5
8	71594	13.91	-1.5
8	72159	14.01	-1.5
8	72716	14.11	-1.5
8	73273	14.21	-1.5
8	73830	14.31	-1.5
8	74387	14.41	-1.5
8	74944	14.51	-1.5
8	75501	14.61	-1.5
8	76058	14.71	-1.5
8	76615	14.81	-1.5
8	77172	14.91	-0.936584
8	77737	15.01	0.423872
8	78294	15.11	1.5
8	78851	15.21	1.5
8	79408	15.31	1.5
8	79965	15.41	1.5
8	80522	15.51	1.5
8	81079	15.61	1.5
8	81636	15.71	1.5
8	82193	15.81	1.5
8	82750	15.91	1.5
8	83315	16.01	1.5
8	83872	16.11	1.5
8	84429	16.21	1.5
8	84986	16.31	1.5
8	85543	16.41	1.5
8	86100	16.51	1.5
8	86657	16.61	1.5
8	87214	16.71	1.5
8	87771	16.81	1.5
8	88328	16.91	1.5
8	88893	17.01	1.5
8	89450	17.11	1.5
8	90007	17.21	1.5
8	90564	17.31	0.912285
8	91121	17.41	-0.427667
8	91678	17.51	-1.5
8	92235	17.61	-1.5
8	92792	17.71	-1.5
8	93349	17.81	-1.5
8	93906	17.91	-1.5
8	94471	18.01	-1.5
8	95028	18.11	-1.5
8	95585	18.21	-1.5
8	96142	18.31	-1.5
8	96699	18.41	-1.5
8	97256	18.51	-1.5
8	97813	18.61	-1.5
8	98370	18.71	-1.5
8	98927	18.81	-1.5
8	99484	18.91	-1.5
8	100049	19.01	-1.5
8	100606	19.11	-1.5
8	101163	19.21	-1.5
8	101720	19.31	-1.5
8	102277	19.41	-1.5
8	102834	19.51	-1.5
8	103391	19.61	-1.5
8	103948	19.71	-1.5
8	104505	19.81	-1.5
8	105062	19.91	-0.633357
8	105627	20.01	0.723924
8	106184	20.11	1.5
8	106741	20.21	1.5
8	107298	20.31	1.5
8	107855	20.41	1.5
8	108412	20.51	1.5
8	108969	20.61	1.5
8	109526	20.71	1.5
8	110083	20.81	1.5
8	110640	20.91	1.5
8	111205	21.01	1.5
8	111762	21.11	1.5
8	112319	21.21	1.5
8	112876	21.31	1.5
8	113433	21.41	1.5
8	113990	21.51	1.5
8	114547	21.61	1.5
8	115104	21.71	1.5
8	115661	21.81	1.5
8	116218	21.91	1.5
8	116783	22.01	1.5
8	117340	22.11	1.5
8	117897	22.21	1.5
8	118454	22.31	1.1557
8	119011	22.41	-0.186833
8	119568	22.51	-1.5
8	120125	22.61	-1.5
8	120682	22.71	-1.5
8	121239	22.81	-1.5
8	121796	22.91	-1.5
8	122361	23.01	-1.5
8	122918	23.11	-1.5
8	123475	23.21	-1.5
8	124032	23.31	-1.5
8	124589	23.41	-1.5
8	125146	23.51	-1.5
8	125703	23.61	-1.5
8	126260	23.71	-1.5
8	126817	23.81	-1.5
8	127374	23.91	-1.5
8	127939	24.01	-1.5
8	128496	24.11	-1.5
8	129053	24.21	-1.5
8	129610	24.31	-1.5
8	130167	24.41	-1.5
8	130724	24.51	-1.5
8	131281	24.61	-1.5
8	131838	24.71	-1.5
8	132395	24.81	-1.5
8	132952	24.91	-0.43831
8	133517	25.01	0.916929
8	134074	25.11	1.5
8	134631	25.21	1.5
8	135188	25.31	1.5
8	135745	25.41	1.5
8	136302	25.51	1.5
8	136859	25.61	1.5
8	137416	25.71	1.5
8	137973	25.81	1.5
8	138530	25.91	1.5
8	139095	26.01	1.5
8	139652	26.11	1.5
8	140209	26.21	1.5
8	140766	26.31	1.5
8	141323	26.41	1.5
8	141880	26.51	1.5
8	142437	26.61	1.5
8	142994	26.71	1.5
8	143551	26.81	1.5
8	144108	26.91	1.5
8	144673	27.01	1.5
8	145230	27.11	1.5
8	145787	27.21	1.5
8	146344	27.31	1.31228
8	146901	27.41	-0.0319178
8	147458	27.51	-1.37804
8	148015	27.61	-1.5
8	148572	27.71	-1.5
8	149129	27.81	-1.5
8	149686	27.91	-1.5
8	150251	28.01	-1.5
8	150808	28.11	-1.5
8	151365	28.21	-1.5
8	151922	28.31	-1.5
8	152479	28.41	-1.5
8	153036	28.51	-1.5
8	153593	28.61	-1.5
8	154150	28.71	-1.5
8	154707	28.81	-1.5
8	155264	28.91	-1.5
8	155829	29.01	-1.5
8	156386	29.11	-1.5
8	156943	29.21	-1.5
8	157500	29.31	-1.5
8	158057	29.41	-1.5
8	158614	29.51	-1.5
8	159171	29.61	-1.5
8	159728	29.71	-1.5
8	160285	29.81	-1.5
8	160842	29.91	-0.320565
8	161407	30.01	1.03343
8	161964	30.11	1.5
8	162521	30.21	1.5
8	163078	30.31	1.5
8	163635	30.41	1.5
8	164192	30.51	1.5
8	164749	30.61	1.5
8	165306	30.71	1.5
8	165863	30.81	1.5
8	166420	30.91	1.5
8	166985	31.01	1.5
8	167542	31.11	1.5
8	168099	31.21	1.5
8	168656	31.31	1.5
8	169213	31.41	1.5
8	169770	31.51	1.5
8	170327	31.61	1.5
8	170884	31.71	1.5
8	171441	31.81	1.5
8	171998	31.91	1.5
8	172563	32.01	1.5
8	173120	32.11	1.5
8	173677	32.21	1.5
8	174234	32.31	1.40672
8	174791	32.41	0.0615183
8	175348	32.51	-1.28711
8	175905	32.61	-1.5
8	176462	32.71	-1.5
8	177019	32.81	-1.5
8	177576	32.91	-1.5
8	178141	33.01	-1.5
8	178698	33.11	-1.5
8	179255	33.21	-1.5
8	179812	33.31	-1.5
8	180369	33.41	-1.5
8	180926	33.51	-1.5
8	181483	33.61	-1.5
8	182040	33.71	-1.5
8	182597	33.81	-1.5
8	183154	33.91	-1.5
8	183719	34.01	-1.5
8	184276	34.11	-1.5
8	184833	34.21	-1.5
8	185390	34.31	-1.5
8	185947	34.41	-1.5
8	186504	34.51	-1.5
8	187061	34.61	-1.5
8	187618	34.71	-1.5
8	188175	34.81	-1.5
8	188732	34.91	-0.253761
8	189297	35.01	1.09942
8	189854	35.11	1.5
8	190411	35.21	1.5
8	190968	35.31	1.5
8	191525	35.41	1.5
8	192082	35.51	1.5
8	192639	35.61	1.5
8	193196	35.71	1.5
8	193753	35.81	1.5
8	194310	35.91	1.5
8	194875	36.01	1.5
8	195432	36.11	1.5
8	195989	36.21	1.5
8	196546	36.31	1.5
8	197103	36.41	1.5
8	197660	36.51	1.5
8	198217	36.61	1.5
8	198774	36.71	1.5
8	199331	36.81	1.5
8	199888	36.91	1.5
8	200453	37.01	1.5
8	201010	37.11	1.5
8	201567	37.21	1.5
8	202124	37.31	1.45977
8	202681	37.41	0.113999
8	203238	37.51	-1.23603
8	203795	37.61	-1.5
8	204352	37.71	-1.5
8	204909	37.81	-1.5
8	205466	37.91	-1.5
8	206031	38.01	-1.5
8	206588	38.11	-1.5
8	207145	38.21	-1.5
8	207702	38.31	-1.5
8	208259	38.41	-1.5
8	208816	38.51	-1.5
8	209373	38.61	-1.5
8	209930	38.71	-1.5
8	210487	38.81	-1.5
8	211044	38.91	-1.5
8	211609	39.01	-1.5
8	212166	39.11	-1.5
8	212723	39.21	-1.5
8	213280	39.31	-1.5
8	213837	39.41	-1.5
8	214394	39.51	-1.5
8	214951	39.61	-1.5
8	215508	39.71	-1.5
8	216065	39.81	-1.5
8	216622	39.91	-0.216308
8	217187	40.01	1.13622
8	217744	40.11	1.5
8	218301	40.21	1.5
8	218858	40.31	1.5
8	219415	40.41	1.5
8	219972	40.51	1.5
8	220529	40.61	1.5
8	221086	40.71	1.5
8	221643	40.81	1.5
8	222200	40.91	1.5
8	222765	41.01	1.5
8	223322	41.11	1.5
8	223879	41.21	1.5
8	224436	41.31	1.5
8	224993	41.41	1.5
8	225550	41.51	1.5
8	226107	41.61	1.5
8	226664	41.71	1.5
8	227221	41.81	1.5
8	227778	41.91	1.5
8	228343	42.01	1.5
8	228900	42.11	1.5
8	229457	42.21	1.5
8	230014	42.31	1.48842
8	230571	42.41	0.142349
8	231128	42.51	-1.20844
8	231685	42.61	-1.5
8	232242	42.71	-1.5
8	232799	42.81	-1.5
8	233356	42.91	-1.5
8	233921	43.01	-1.5
8	234478	43.11	-1.5
8	235035	43.21	-1.5
8	235592	43.31	-1.5
8	236149	43.41	-1.5
8	236706	43.51	-1.5
8	237263	43.61	-1.5
8	237820	43.71	-1.5
8	238377	43.81	-1.5
8	238934	43.91	-1.5
8	239499	44.01	-1.5
8	240056	44.11	-1.5
8	240613	44.21	-1.5
8	241170	44.31	-1.5
8	241727	44.41	-1.5
8	242284	44.51	-1.5
8	242841	44.61	-1.5
8	243398	44.71	-1.5
8	243955	44.81	-1.5
8	244512	44.91	-0.196125
8	245077	45.01	1.15599
8	245634	45.11	1.5
8	246191	45.21	1.5
8	246748	45.31	1.5
8	247305	45.41	1.5
8	247862	45.51	1.5
8	248419	45.61	1.5
8	248976	45.71	1.5
8	249533	45.81	1.5
8	250090	45.91	1.5
8	250655	46.01	1.5
8	251212	46.11	1.5
8	251769	46.21	1.5
8	252326	46.31	1.5
8	252883	46.41	1.5
8	253440	46.51	1.5
8	253997	46.61	1.5
8	254554	46.71	1.5
8	255111	46.81	1.5
8	255668	46.91	1.5
8	256233	47.01	1.5
8	256790	47.11	1.5
8	257347	47.21	1.5
8	257904	47.31	1.5
8	258461	47.41	0.1573
8	259018	47.51	-1.19389
8	259575	47.61	-1.5
8	260132	47.71	-1.5
8	260689	47.81	-1.5
8	261246	47.91	-1.5
8	261811	48.01	-1.5
8	262368	48.11	-1.5
8	262925	48.21	-1.5
8	263482	48.31	-1.5
8	264039	48.41	-1.5
8	264596	48.51	-1.5
8	265153	48.61	-1.5
8	265710	48.71	-1.5
8	266267	48.81	-1.5
8	266824	48.91	-1.5
8	267389	49.01	-1.5
8	267946	49.11	-1.5
8	268503	49.21	-1.5
8	269060	49.31	-1.5
8	269617	49.41	-1.5
8	270174	49.51	-1.5
8	270731	49.61	-1.5
8	271288	49.71	-1.5
8	271845	49.81	-1.5
8	272402	49.91	-0.185471
8	272967	50.01	1.1664
8	273524	50.11	1.5
8	274081	50.21	1.5
8	274638	50.31	1.5
8	275195	50.41	1.5
8	275752	50.51	1.5
8	276309	50.61	1.5
8	276866	50.71	1.5
8	277423	50.81	1.5
8	277980	50.91	1.5
8	278545	51.01	1.5
8	279102	51.11	1.5
8	279659	51.21	1.5
8	280216	51.31	1.5
8	280773	51.41	1.5
8	281330	51.51	1.5
8	281887	51.61	1.5
8	282444	51.71	1.5
8	283001	51.81	1.5
8	283558	51.91	1.5
8	284123	52.01	1.5
8	284680	52.11	1.5
8	285237	52.21	1.5
8	285794	52.31	1.5
8	286351	52.41	0.165103
8	286908	52.51	-1.18628
8	287465	52.61	-1.5
8	288022	52.71	-1.5
8	288579	52.81	-1.5
8	289136	52.91	-1.5
8	289701	53.01	-1.5
8	290258	53.11	-1.5
8	290815	53.21	-1.5
8	291372	53.31	-1.5
8	291929	53.41	-1.5
8	292486	53.51	-1.5
8	293043	53.61	-1.5
8	293600	53.71	-1.5
8	294157	53.81	-1.5
8	294714	53.91	-1.5
8	295279	54.01	-1.5
8	295836	54.11	-1.5
8	296393	54.21	-1.5
8	296950	54.31	-1.5
8	297507	54.41	-1.5
8	298064	54.51	-1.5
8	298621	54.61	-1.5
8	299178	54.71	-1.5
8	299735	54.81	-1.5
8	300292	54.91	-0.179868
8	300857	55.01	1.17187
8	301414	55.11	1.5
8	301971	55.21	1.5
8	302528	55.31	1.5
8	303085	55.41	1.5
8	303642	55.51	1.5
8	304199	55.61	1.5
8	304756	55.71	1.5
8	305313	55.81	1.5
8	305870	55.91	1.5
8	306435	56.01	1.5
8	306992	56.11	1.5
8	307549	56.21	1.5
8	308106	56.31	1.5
8	308663	56.41	1.5
8	309220	56.51	1.5
8	309777	56.61	1.5
8	310334	56.71	1.5
8	310891	56.81	1.5
8	311448	56.91	1.5
8	312013	57.01	1.5
8	312570	57.11	1.5
8	313127	57.21	1.5
8	313684	57.31	1.5
8	314241	57.41	0.169182
8	314798	57.51	-1.18231
8	315355	57.61	-1.5
8	315912	57.71	-1.5
8	316469	57.81	-1.5
8	317026	57.91	-1.5
8	317591	58.01	-1.5
8	318148	58.11	-1.5
8	318705	58.21	-1.5
8	319262	58.31	-1.5
8	319819	58.41	-1.5
8	320376	58.51	-1.5
8	320933	58.61	-1.5
8	321490	58.71	-1.5
8	322047	58.81	-1.5
8	322604	58.91	-1.5
8	323169	59.01	-1.5
8	323726	59.11	-1.5
8	324283	59.21	-1.5
8	324840	59.31	-1.5
8	325397	59.41	-1.5
8	325954	59.51	-1.5
8	326511	59.61	-1.5
8	327068	59.71	-1.5
8	327625	59.81	-1.5
8	328182	59.91	-0.176935
7	233	1.11	-0.000358191
7	790	1.21	-0.000681704
7	1346	1.31	-0.00093487
7	1903	1.41	-0.00112579
7	2460	1.51	-0.00126221
7	3016	1.61	-0.00135149
7	3572	1.71	-0.00140049
7	4129	1.81	-0.00141557
7	4685	1.91	-0.00140255
7	5252	2.01	-0.00136671
7	5808	2.11	-0.0013128
7	6364	2.21	-0.00124502
7	6920	2.31	-0.0011671
7	7476	2.41	-0.00108223
7	8032	2.51	-0.000993208
7	8588	2.61	-0.000902362
7	9144	2.71	-0.000811651
7	9700	2.81	-0.000722679
7	10256	2.91	-0.000636729
7	10820	3.01	-0.0005548
7	11376	3.11	-0.000477639
7	11932	3.21	-0.000405773
7	12488	3.31	-0.00033954
7	13044	3.41	-0.000279116
7	13600	3.51	-0.000224541
7	14156	3.61	-0.000175743
7	14712	3.71	-0.00013256
7	15268	3.81	-9.47571e-05
7	15824	3.91	-6.2046e-05
7	16388	4.01	-3.40986e-05
7	16944	4.11	-1.05605e-05
7	17500	4.21	8.93844e-06
7	18056	4.31	2.4774e-05
7	18612	4.41	3.73203e-05
7	19168	4.51	4.69433e-05
7	19724	4.61	5.39956e-05
7	20280	4.71	5.88124e-05
7	20836	4.81	6.1709e-05
7	21392	4.91	6.29785e-05
7	21957	5.01	6.28903e-05
7	22514	5.11	0.0239538
7	23071	5.21	0.243384
7	23628	5.31	0.469137
7	24185	5.41	0.654333
7	24742	5.51	0.806259
7	25299	5.61	0.930891
7	25856	5.71	1.03313
7	26413	5.81	1.11701
7	26970	5.91	1.18581
7	27535	6.01	1.24226
7	28092	6.11	1.28856
7	28649	6.21	1.32655
7	29206	6.31	1.35771
7	29763	6.41	1.38327
7	30320	6.51	1.40424
7	30877	6.61	1.42144
7	31434	6.71	1.43556
7	31991	6.81	1.44713
7	32548	6.91	1.45663
7	33113	7.01	1.46442
7	33670	7.11	1.47081
7	34227	7.21	1.47008
7	34784	7.31	1.38319
7	35341	7.41	1.07822
7	35898	7.51	0.618121
7	36455	7.61	0.237597
7	37012	7.71	-0.0745656
7	37569	7.81	-0.330647
7	38126	7.91	-0.540724
7	38691	8.01	-0.713059
7	39248	8.11	-0.854434
7	39805	8.21	-0.970411
7	40362	8.31	-1.06555
7	40919	8.41	-1.1436
7	41476	8.51	-1.20763
7	42033	8.61	-1.26015
7	42590	8.71	-1.30324
7	43147	8.81	-1.33859
7	43704	8.91	-1.36759
7	44269	9.01	-1.39138
7	44826	9.11	-1.41089
7	45383	9.21	-1.4269
7	45940	9.31	-1.44003
7	46497	9.41	-1.45081
7	47054	9.51	-1.45964
7	47611	9.61	-1.46689
7	48168	9.71	-1.47284
7	48725	9.81	-1.47772
7	49282	9.91	-1.48033
7	49847	10.01	-1.43225
7	50404	10.11	-1.14873
7	50961	10.21	-0.698691
7	51518	10.31	-0.303692
7	52075	10.41	0.0203439
7	52632	10.51	0.286167
7	53189	10.61	0.504234
7	53746	10.71	0.683125
7	54303	10.81	0.829878
7	54860	10.91	0.950267
7	55425	11.01	1.04903
7	55982	11.11	1.13005
7	56539	11.21	1.19651
7	57096	11.31	1.25103
7	57653	11.41	1.29576
7	58210	11.51	1.33245
7	58767	11.61	1.36255
7	59324	11.71	1.38724
7	59881	11.81	1.4075
7	60438	11.91	1.42412
7	61003	12.01	1.43775
7	61560	12.11	1.44893
7	62117	12.21	1.45811
7	62674	12.31	1.44668
7	63231	12.41	1.24496
7	63788	12.51	0.85413
7	64345	12.61	0.431206
7	64902	12.71	0.0842617
7	65459	12.81	-0.200354
7	66016	12.91	-0.433837
7	66581	13.01	-0.625375
7	67138	13.11	-0.782503
7	67695	13.21	-0.911403
7	68252	13.31	-1.01715
7	68809	13.41	-1.10389
7	69366	13.51	-1.17505
7	69923	13.61	-1.23343
7	70480	13.71	-1.28132
7	71037	13.81	-1.32061
7	71594	13.91	-1.35283
7	72159	14.01	-1.37927
7	72716	14.11	-1.40096
7	73273	14.21	-1.41875
7	73830	14.31	-1.43335
7	74387	14.41	-1.44532
7	74944	14.51	-1.45515
7	75501	14.61	-1.4632
7	76058	14.71	-1.46981
7	76615	14.81	-1.47524
7	77172	14.91	-1.46864
7	77737	15.01	-1.33456
7	78294	15.11	-0.987349
7	78851	15.21	-0.540493
7	79408	15.31	-0.173915
7	79965	15.41	0.126807
7	80522	15.51	0.373503
7	81079	15.61	0.57588
7	81636	15.71	0.7419
7	82193	15.81	0.878094
7	82750	15.91	0.98982
7	83315	16.01	1.08148
7	83872	16.11	1.15666
7	84429	16.21	1.21834
7	84986	16.31	1.26894
7	85543	16.41	1.31045
7	86100	16.51	1.34451
7	86657	16.61	1.37244
7	87214	16.71	1.39536
7	87771	16.81	1.41416
7	88328	16.91	1.42958
7	88893	17.01	1.44223
7	89450	17.11	1.45261
7	90007	17.21	1.46112
7	90564	17.31	1.45658
7	91121	17.41	1.32081
7	91678	17.51	0.975571
7	92235	17.61	0.530831
7	92792	17.71	0.165988
7	93349	17.81	-0.133309
7	93906	17.91	-0.378838
7	94471	18.01	-0.580256
7	95028	18.11	-0.74549
7	95585	18.21	-0.881039
7	96142	18.31	-0.992236
7	96699	18.41	-1.08346
7	97256	18.51	-1.15829
7	97813	18.61	-1.21968
7	98370	18.71	-1.27004
7	98927	18.81	-1.31135
7	99484	18.91	-1.34524
7	100049	19.01	-1.37305
7	100606	19.11	-1.39585
7	101163	19.21	-1.41456
7	101720	19.31	-1.42991
7	102277	19.41	-1.4425
7	102834	19.51	-1.45283
7	103391	19.61	-1.46131
7	103948	19.71	-1.46826
7	104505	19.81	-1.47396
7	105062	19.91	-1.46165
7	105627	20.01	-1.27459
7	106184	20.11	-0.890726
7	106741	20.21	-0.461228
7	107298	20.31	-0.10889
7	107855	20.41	0.18015
7	108412	20.51	0.417263
7	108969	20.61	0.611778
7	109526	20.71	0.771349
7	110083	20.81	0.902252
7	110640	20.91	1.00964
7	111205	21.01	1.09773
7	111762	21.11	1.17
7	112319	21.21	1.22929
7	112876	21.31	1.27792
7	113433	21.41	1.31782
7	113990	21.51	1.35055
7	114547	21.61	1.3774
7	115104	21.71	1.39942
7	115661	21.81	1.41749
7	116218	21.91	1.43231
7	116783	22.01	1.44447
7	117340	22.11	1.45445
7	117897	22.21	1.46263
7	118454	22.31	1.46259
7	119011	22.41	1.36927
7	119568	22.51	1.05339
7	120125	22.61	0.594671
7	120682	22.71	0.21836
7	121239	22.81	-0.0903463
7	121796	22.91	-0.343593
7	122361	23.01	-0.551343
7	122918	23.11	-0.721771
7	123475	23.21	-0.861581
7	124032	23.31	-0.976274
7	124589	23.41	-1.07036
7	125146	23.51	-1.14755
7	125703	23.61	-1.21087
7	126260	23.71	-1.26281
7	126817	23.81	-1.30542
7	127374	23.91	-1.34038
7	127939	24.01	-1.36905
7	128496	24.11	-1.39258
7	129053	24.21	-1.41188
7	129610	24.31	-1.42771
7	130167	24.41	-1.4407
7	130724	24.51	-1.45135
7	131281	24.61	-1.46009
7	131838	24.71	-1.46726
7	132395	24.81	-1.47314
7	132952	24.91	-1.45715
7	133517	25.01	-1.23602
7	134074	25.11	-0.828577
7	134631	25.21	-0.410244
7	135188	25.31	-0.0670653
7	135745	25.41	0.214461
7	136302	25.51	0.44541
7	136859	25.61	0.634869
7	137416	25.71	0.790291
7	137973	25.81	0.917792
7	138530	25.91	1.02239
7	139095	26.01	1.10819
7	139652	26.11	1.17858
7	140209	26.21	1.23632
7	140766	26.31	1.28369
7	141323	26.41	1.32255
7	141880	26.51	1.35443
7	142437	26.61	1.38058
7	142994	26.71	1.40204
7	143551	26.81	1.41964
7	144108	26.91	1.43407
7	144673	27.01	1.44592
7	145230	27.11	1.45563
7	145787	27.21	1.4636
7	146344	27.31	1.46646
7	146901	27.41	1.40044
7	147458	27.51	1.10584
7	148015	27.61	0.649195
7	148572	27.71	0.263088
7	149129	27.81	-0.0536535
7	149686	27.91	-0.313492
7	150251	28.01	-0.52665
7	150808	28.11	-0.701514
7	151365	28.21	-0.844964
7	151922	28.31	-0.962642
7	152479	28.41	-1.05918
7	153036	28.51	-1.13837
7	153593	28.61	-1.20334
7	154150	28.71	-1.25664
7	154707	28.81	-1.30036
7	155264	28.91	-1.33622
7	155829	29.01	-1.36565
7	156386	29.11	-1.38978
7	156943	29.21	-1.40958
7	157500	29.31	-1.42583
7	158057	29.41	-1.43915
7	158614	29.51	-1.45008
7	159171	29.61	-1.45905
7	159728	29.71	-1.46641
7	160285	29.81	-1.47244
7	160842	29.91	-1.45427
7	161407	30.01	-1.2126
7	161964	30.11	-0.79095
7	162521	30.21	-0.379377
7	163078	30.31	-0.0417438
7	163635	30.41	0.235233
7	164192	30.51	0.462451
7	164749	30.61	0.648848
7	165306	30.71	0.801759
7	165863	30.81	0.927199
7	166420	30.91	1.0301
7	166985	31.01	1.11452
7	167542	31.11	1.18377
7	168099	31.21	1.24058
7	168656	31.31	1.28719
7	169213	31.41	1.32542
7	169770	31.51	1.35678
7	170327	31.61	1.38251
7	170884	31.71	1.40362
7	171441	31.81	1.42093
7	171998	31.91	1.43514
7	172563	32.01	1.44679
7	173120	32.11	1.45635
7	173677	32.21	1.46419
7	174234	32.31	1.4688
7	174791	32.41	1.41925
7	175348	32.51	1.13782
7	175905	32.61	0.689694
7	176462	32.71	0.296311
7	177019	32.81	-0.026399
7	177576	32.91	-0.291134
7	178141	33.01	-0.508309
7	178698	33.11	-0.686468
7	179255	33.21	-0.83262
7	179812	33.31	-0.952516
7	180369	33.41	-1.05087
7	180926	33.51	-1.13156
7	181483	33.61	-1.19775
7	182040	33.71	-1.25205
7	182597	33.81	-1.29659
7	183154	33.91	-1.33314
7	183719	34.01	-1.36311
7	184276	34.11	-1.38771
7	184833	34.21	-1.40788
7	185390	34.31	-1.42443
7	185947	34.41	-1.43801
7	186504	34.51	-1.44914
7	187061	34.61	-1.45828
7	187618	34.71	-1.46577
7	188175	34.81	-1.47192
7	188732	34.91	-1.45153
7	189297	35.01	-1.19842
7	189854	35.11	-0.768895
7	190411	35.21	-0.361284
7	190968	35.31	-0.0269015
7	191525	35.41	0.247409
7	192082	35.51	0.472439
7	192639	35.61	0.657042
7	193196	35.71	0.808481
7	193753	35.81	0.932714
7	194310	35.91	1.03463
7	194875	36.01	1.11823
7	195432	36.11	1.18682
7	195989	36.21	1.24308
7	196546	36.31	1.28924
7	197103	36.41	1.3271
7	197660	36.51	1.35816
7	198217	36.61	1.38364
7	198774	36.71	1.40455
7	199331	36.81	1.4217
7	199888	36.91	1.43576
7	200453	37.01	1.4473
7	201010	37.11	1.45677
7	201567	37.21	1.46454
7	202124	37.31	1.47012
7	202681	37.41	1.42982
7	203238	37.51	1.15579
7	203795	37.61	0.712447
7	204352	37.71	0.314977
7	204909	37.81	-0.0110866
7	205466	37.91	-0.278572
7	206031	38.01	-0.498004
7	206588	38.11	-0.678014
7	207145	38.21	-0.825685
7	207702	38.31	-0.946827
7	208259	38.41	-1.04621
7	208816	38.51	-1.12773
7	209373	38.61	-1.19461
7	209930	38.71	-1.24947
7	210487	38.81	-1.29448
7	211044	38.91	-1.3314
7	211609	39.01	-1.36169
7	212166	39.11	-1.38654
7	212723	39.21	-1.40692
7	213280	39.31	-1.42364
7	213837	39.41	-1.43736
7	214394	39.51	-1.44861
7	214951	39.61	-1.45785
7	215508	39.71	-1.46542
7	216065	39.81	-1.47163
7	216622	39.91	-1.44779
7	217187	40.01	-1.18868
7	217744	40.11	-0.755104
7	218301	40.21	-0.349971
7	218858	40.31	-0.0176205
7	219415	40.41	0.255023
7	219972	40.51	0.478685
7	220529	40.61	0.662166
7	221086	40.71	0.812684
7	221643	40.81	0.936162
7	222200	40.91	1.03746
7	222765	41.01	1.12055
7	223322	41.11	1.18872
7	223879	41.21	1.24464
7	224436	41.31	1.29052
7	224993	41.41	1.32815
7	225550	41.51	1.35902
7	226107	41.61	1.38435
7	226664	41.71	1.40513
7	227221	41.81	1.42217
7	227778	41.91	1.43615
7	228343	42.01	1.44762
7	228900	42.11	1.45703
7	229457	42.21	1.46475
7	230014	42.31	1.47086
7	230571	42.41	1.43555
7	231128	42.51	1.16551
7	231685	42.61	0.724751
7	232242	42.71	0.325071
7	232799	42.81	-0.00280632
7	233356	42.91	-0.27178
7	233921	43.01	-0.492432
7	234478	43.11	-0.673443
7	235035	43.21	-0.821935
7	235592	43.31	-0.943751
7	236149	43.41	-1.04368
7	236706	43.51	-1.12566
7	237263	43.61	-1.19291
7	237820	43.71	-1.24808
7	238377	43.81	-1.29334
7	238934	43.91	-1.33047
7	239499	44.01	-1.36092
7	240056	44.11	-1.38591
7	240613	44.21	-1.4064
7	241170	44.31	-1.42322
7	241727	44.41	-1.43701
7	242284	44.51	-1.44833
7	242841	44.61	-1.45761
7	243398	44.71	-1.46523
7	243955	44.81	-1.47147
7	244512	44.91	-1.44508
7	245077	45.01	-1.18287
7	245634	45.11	-0.747231
7	246191	45.21	-0.343512
7	246748	45.31	-0.0123218
7	247305	45.41	0.259369
7	247862	45.51	0.482251
7	248419	45.61	0.665091
7	248976	45.71	0.815084
7	249533	45.81	0.93813
7	250090	45.91	1.03907
7	250655	46.01	1.12188
7	251212	46.11	1.18981
7	251769	46.21	1.24553
7	252326	46.31	1.29125
7	252883	46.41	1.32875
7	253440	46.51	1.35952
7	253997	46.61	1.38476
7	254554	46.71	1.40546
7	255111	46.81	1.42244
7	255668	46.91	1.43638
7	256233	47.01	1.44781
7	256790	47.11	1.45718
7	257347	47.21	1.46488
7	257904	47.31	1.47119
7	258461	47.41	1.43852
7	259018	47.51	1.1706
7	259575	47.61	0.731207
7	260132	47.71	0.330367
7	260689	47.81	0.00153846
7	261246	47.91	-0.268215
7	261811	48.01	-0.489508
7	262368	48.11	-0.671044
7	262925	48.21	-0.819968
7	263482	48.31	-0.942137
7	264039	48.41	-1.04236
7	264596	48.51	-1.12457
7	265153	48.61	-1.19202
7	265710	48.71	-1.24735
7	266267	48.81	-1.29274
7	266824	48.91	-1.32997
7	267389	49.01	-1.36052
7	267946	49.11	-1.38558
7	268503	49.21	-1.40613
7	269060	49.31	-1.423
7	269617	49.41	-1.43683
7	270174	49.51	-1.44818
7	270731	49.61	-1.45749
7	271288	49.71	-1.46513
7	271845	49.81	-1.47139
7	272402	49.91	-1.44345
7	272967	50.01	-1.17964
7	273524	50.11	-0.742941
7	274081	50.21	-0.339993
7	274638	50.31	-0.00943511
7	275195	50.41	0.261737
7	275752	50.51	0.484193
7	276309	50.61	0.666685
7	276866	50.71	0.816391
7	277423	50.81	0.939203
7	277980	50.91	1.03995
7	278545	51.01	1.1226
7	279102	51.11	1.1904
7	279659	51.21	1.24602
7	280216	51.31	1.29165
7	280773	51.41	1.32908
7	281330	51.51	1.35979
7	281887	51.61	1.38498
7	282444	51.71	1.40564
7	283001	51.81	1.42259
7	283558	51.91	1.4365
7	284123	52.01	1.44791
7	284680	52.11	1.45727
7	285237	52.21	1.46494
7	285794	52.31	1.47124
7	286351	52.41	1.43997
7	286908	52.51	1.17317
7	287465	52.61	0.734515
7	288022	52.71	0.33308
7	288579	52.81	0.0037643
7	289136	52.91	-0.26639
7	289701	53.01	-0.48801
7	290258	53.11	-0.669816
7	290815	53.21	-0.81896
7	291372	53.31	-0.94131
7	291929	53.41	-1.04168
7	292486	53.51	-1.12402
7	293043	53.61	-1.19156
7	293600	53.71	-1.24697
7	294157	53.81	-1.29243
7	294714	53.91	-1.32972
7	295279	54.01	-1.36031
7	295836	54.11	-1.38541
7	296393	54.21	-1.40599
7	296950	54.31	-1.42288
7	297507	54.41	-1.43674
7	298064	54.51	-1.4481
7	298621	54.61	-1.45743
7	299178	54.71	-1.46507
7	299735	54.81	-1.47135
7	300292	54.91	-1.44254
7	300857	55.01	-1.17789
7	301414	55.11	-0.740652
7	301971	55.21	-0.338115
7	302528	55.31	-0.00789462
7	303085	55.41	0.263001
7	303642	55.51	0.48523
7	304199	55.61	0.667535
7	304756	55.71	0.817089
7	305313	55.81	0.939775
7	305870	55.91	1.04042
7	306435	56.01	1.12298
7	306992	56.11	1.19072
7	307549	56.21	1.24628
7	308106	56.31	1.29186
7	308663	56.41	1.32925
7	309220	56.51	1.35993
7	309777	56.61	1.38509
7	310334	56.71	1.40574
7	310891	56.81	1.42267
7	311448	56.91	1.43656
7	312013	57.01	1.44796
7	312570	57.11	1.45731
7	313127	57.21	1.46498
7	313684	57.31	1.47127
7	314241	57.41	1.44072
7	314798	57.51	1.17451
7	315355	57.61	0.736235
7	315912	57.71	0.334492
7	316469	57.81	0.00492235
7	317026	57.91	-0.26544
7	317591	58.01	-0.48723
7	318148	58.11	-0.669176
7	318705	58.21	-0.818435
7	319262	58.31	-0.940879
7	319819	58.41	-1.04133
7	320376	58.51	-1.12373
7	320933	58.61	-1.19133
7	321490	58.71	-1.24678
7	322047	58.81	-1.29227
7	322604	58.91	-1.32959
7	323169	59.01	-1.3602
7	323726	59.11	-1.38532
7	324283	59.21	-1.40592
7	324840	59.31	-1.42282
7	325397	59.41	-1.43669
7	325954	59.51	-1.44806
7	326511	59.61	-1.45739
7	327068	59.71	-1.46505
7	327625	59.81	-1.47133
7	328182	59.91	-1.44204
6	233	1.11	242.45
6	790	1.21	242.45
6	1346	1.31	242.45
6	1903	1.41	242.45
6	2460	1.51	242.45
6	3016	1.61	242.45
6	3572	1.71	242.45
6	4129	1.81	242.45
6	4685	1.91	242.45
6	5252	2.01	242.45
6	5808	2.11	242.45
6	6364	2.21	242.45
6	6920	2.31	242.45
6	7476	2.41	242.45
6	8032	2.51	242.45
6	8588	2.61	242.45
6	9144	2.71	242.45
6	9700	2.81	242.45
6	10256	2.91	242.45
6	10820	3.01	242.45
6	11376	3.11	242.45
6	11932	3.21	242.45
6	12488	3.31	242.45
6	13044	3.41	242.45
6	13600	3.51	242.45
6	14156	3.61	242.45
6	14712	3.71	242.45
6	15268	3.81	242.45
6	15824	3.91	242.45
6	16388	4.01	242.45
6	16944	4.11	242.45
6	17500	4.21	242.45
6	18056	4.31	242.45
6	18612	4.41	242.45
6	19168	4.51	242.45
6	19724	4.61	242.45
6	20280	4.71	242.45
6	20836	4.81	242.45
6	21392	4.91	242.45
6	21957	5.01	242.45
6	22514	5.11	242.45
6	23071	5.21	242.45
6	23628	5.31	242.45
6	24185	5.41	242.45
6	24742	5.51	242.45
6	25299	5.61	242.45
6	25856	5.71	242.45
6	26413	5.81	242.45
6	26970	5.91	242.45
6	27535	6.01	242.45
6	28092	6.11	242.45
6	28649	6.21	242.45
6	29206	6.31	242.45
6	29763	6.41	242.45
6	30320	6.51	242.45
6	30877	6.61	242.45
6	31434	6.71	242.45
6	31991	6.81	242.45
6	32548	6.91	242.45
6	33113	7.01	242.45
6	33670	7.11	242.45
6	34227	7.21	242.45
6	34784	7.31	242.45
6	35341	7.41	242.45
6	35898	7.51	242.45
6	36455	7.61	242.45
6	37012	7.71	242.45
6	37569	7.81	242.45
6	38126	7.91	242.45
6	38691	8.01	242.45
6	39248	8.11	242.45
6	39805	8.21	242.45
6	40362	8.31	242.45
6	40919	8.41	242.45
6	41476	8.51	242.45
6	42033	8.61	242.45
6	42590	8.71	242.45
6	43147	8.81	242.45
6	43704	8.91	242.45
6	44269	9.01	242.45
6	44826	9.11	242.45
6	45383	9.21	242.45
6	45940	9.31	242.45
6	46497	9.41	242.45
6	47054	9.51	242.45
6	47611	9.61	242.45
6	48168	9.71	242.45
6	48725	9.81	242.45
6	49282	9.91	242.45
6	49847	10.01	242.45
6	50404	10.11	242.45
6	50961	10.21	242.45
6	51518	10.31	242.45
6	52075	10.41	242.45
6	52632	10.51	242.45
6	53189	10.61	242.45
6	53746	10.71	242.45
6	54303	10.81	242.45
6	54860	10.91	242.45
6	55425	11.01	242.45
6	55982	11.11	242.45
6	56539	11.21	242.45
6	57096	11.31	242.45
6	57653	11.41	242.45
6	58210	11.51	242.45
6	58767	11.61	242.45
6	59324	11.71	242.45
6	59881	11.81	242.45
6	60438	11.91	242.45
6	61003	12.01	242.45
6	61560	12.11	242.45
6	62117	12.21	242.45
6	62674	12.31	242.45
6	63231	12.41	242.45
6	63788	12.51	242.45
6	64345	12.61	242.45
6	64902	12.71	242.45
6	65459	12.81	242.45
6	66016	12.91	242.45
6	66581	13.01	242.45
6	67138	13.11	242.45
6	67695	13.21	242.45
6	68252	13.31	242.45
6	68809	13.41	242.45
6	69366	13.51	242.45
6	69923	13.61	242.45
6	70480	13.71	242.45
6	71037	13.81	242.45
6	71594	13.91	242.45
6	72159	14.01	242.45
6	72716	14.11	242.45
6	73273	14.21	242.45
6	73830	14.31	242.45
6	74387	14.41	242.45
6	74944	14.51	242.45
6	75501	14.61	242.45
6	76058	14.71	242.45
6	76615	14.81	242.45
6	77172	14.91	242.45
6	77737	15.01	242.45
6	78294	15.11	242.45
6	78851	15.21	242.45
6	79408	15.31	242.45
6	79965	15.41	242.45
6	80522	15.51	242.45
6	81079	15.61	242.45
6	81636	15.71	242.45
6	82193	15.81	242.45
6	82750	15.91	242.45
6	83315	16.01	242.45
6	83872	16.11	242.45
6	84429	16.21	242.45
6	84986	16.31	242.45
6	85543	16.41	242.45
6	86100	16.51	242.45
6	86657	16.61	242.45
6	87214	16.71	242.45
6	87771	16.81	242.45
6	88328	16.91	242.45
6	88893	17.01	242.45
6	89450	17.11	242.45
6	90007	17.21	242.45
6	90564	17.31	242.45
6	91121	17.41	242.45
6	91678	17.51	242.45
6	92235	17.61	242.45
6	92792	17.71	242.45
6	93349	17.81	242.45
6	93906	17.91	242.45
6	94471	18.01	242.45
6	95028	18.11	242.45
6	95585	18.21	242.45
6	96142	18.31	242.45
6	96699	18.41	242.45
6	97256	18.51	242.45
6	97813	18.61	242.45
6	98370	18.71	242.45
6	98927	18.81	242.45
6	99484	18.91	242.45
6	100049	19.01	242.45
6	100606	19.11	242.45
6	101163	19.21	242.45
6	101720	19.31	242.45
6	102277	19.41	242.45
6	102834	19.51	242.45
6	103391	19.61	242.45
6	103948	19.71	242.45
6	104505	19.81	242.45
6	105062	19.91	242.45
6	105627	20.01	242.45
6	106184	20.11	242.45
6	106741	20.21	242.45
6	107298	20.31	242.45
6	107855	20.41	242.45
6	108412	20.51	242.45
6	108969	20.61	242.45
6	109526	20.71	242.45
6	110083	20.81	242.45
6	110640	20.91	242.45
6	111205	21.01	242.45
6	111762	21.11	242.45
6	112319	21.21	242.45
6	112876	21.31	242.45
6	113433	21.41	242.45
6	113990	21.51	242.45
6	114547	21.61	242.45
6	115104	21.71	242.45
6	115661	21.81	242.45
6	116218	21.91	242.45
6	116783	22.01	242.45
6	117340	22.11	242.45
6	117897	22.21	242.45
6	118454	22.31	242.45
6	119011	22.41	242.45
6	119568	22.51	242.45
6	120125	22.61	242.45
6	120682	22.71	242.45
6	121239	22.81	242.45
6	121796	22.91	242.45
6	122361	23.01	242.45
6	122918	23.11	242.45
6	123475	23.21	242.45
6	124032	23.31	242.45
6	124589	23.41	242.45
6	125146	23.51	242.45
6	125703	23.61	242.45
6	126260	23.71	242.45
6	126817	23.81	242.45
6	127374	23.91	242.45
6	127939	24.01	242.45
6	128496	24.11	242.45
6	129053	24.21	242.45
6	129610	24.31	242.45
6	130167	24.41	242.45
6	130724	24.51	242.45
6	131281	24.61	242.45
6	131838	24.71	242.45
6	132395	24.81	242.45
6	132952	24.91	242.45
6	133517	25.01	242.45
6	134074	25.11	242.45
6	134631	25.21	242.45
6	135188	25.31	242.45
6	135745	25.41	242.45
6	136302	25.51	242.45
6	136859	25.61	242.45
6	137416	25.71	242.45
6	137973	25.81	242.45
6	138530	25.91	242.45
6	139095	26.01	242.45
6	139652	26.11	242.45
6	140209	26.21	242.45
6	140766	26.31	242.45
6	141323	26.41	242.45
6	141880	26.51	242.45
6	142437	26.61	242.45
6	142994	26.71	242.45
6	143551	26.81	242.45
6	144108	26.91	242.45
6	144673	27.01	242.45
6	145230	27.11	242.45
6	145787	27.21	242.45
6	146344	27.31	242.45
6	146901	27.41	242.45
6	147458	27.51	242.45
6	148015	27.61	242.45
6	148572	27.71	242.45
6	149129	27.81	242.45
6	149686	27.91	242.45
6	150251	28.01	242.45
6	150808	28.11	242.45
6	151365	28.21	242.45
6	151922	28.31	242.45
6	152479	28.41	242.45
6	153036	28.51	242.45
6	153593	28.61	242.45
6	154150	28.71	242.45
6	154707	28.81	242.45
6	155264	28.91	242.45
6	155829	29.01	242.45
6	156386	29.11	242.45
6	156943	29.21	242.45
6	157500	29.31	242.45
6	158057	29.41	242.45
6	158614	29.51	242.45
6	159171	29.61	242.45
6	159728	29.71	242.45
6	160285	29.81	242.45
6	160842	29.91	242.45
6	161407	30.01	242.45
6	161964	30.11	242.45
6	162521	30.21	242.45
6	163078	30.31	242.45
6	163635	30.41	242.45
6	164192	30.51	242.45
6	164749	30.61	242.45
6	165306	30.71	242.45
6	165863	30.81	242.45
6	166420	30.91	242.45
6	166985	31.01	242.45
6	167542	31.11	242.45
6	168099	31.21	242.45
6	168656	31.31	242.45
6	169213	31.41	242.45
6	169770	31.51	242.45
6	170327	31.61	242.45
6	170884	31.71	242.45
6	171441	31.81	242.45
6	171998	31.91	242.45
6	172563	32.01	242.45
6	173120	32.11	242.45
6	173677	32.21	242.45
6	174234	32.31	242.45
6	174791	32.41	242.45
6	175348	32.51	242.45
6	175905	32.61	242.45
6	176462	32.71	242.45
6	177019	32.81	242.45
6	177576	32.91	242.45
6	178141	33.01	242.45
6	178698	33.11	242.45
6	179255	33.21	242.45
6	179812	33.31	242.45
6	180369	33.41	242.45
6	180926	33.51	242.45
6	181483	33.61	242.45
6	182040	33.71	242.45
6	182597	33.81	242.45
6	183154	33.91	242.45
6	183719	34.01	242.45
6	184276	34.11	242.45
6	184833	34.21	242.45
6	185390	34.31	242.45
6	185947	34.41	242.45
6	186504	34.51	242.45
6	187061	34.61	242.45
6	187618	34.71	242.45
6	188175	34.81	242.45
6	188732	34.91	242.45
6	189297	35.01	242.45
6	189854	35.11	242.45
6	190411	35.21	242.45
6	190968	35.31	242.45
6	191525	35.41	242.45
6	192082	35.51	242.45
6	192639	35.61	242.45
6	193196	35.71	242.45
6	193753	35.81	242.45
6	194310	35.91	242.45
6	194875	36.01	242.45
6	195432	36.11	242.45
6	195989	36.21	242.45
6	196546	36.31	242.45
6	197103	36.41	242.45
6	197660	36.51	242.45
6	198217	36.61	242.45
6	198774	36.71	242.45
6	199331	36.81	242.45
6	199888	36.91	242.45
6	200453	37.01	242.45
6	201010	37.11	242.45
6	201567	37.21	242.45
6	202124	37.31	242.45
6	202681	37.41	242.45
6	203238	37.51	242.45
6	203795	37.61	242.45
6	204352	37.71	242.45
6	204909	37.81	242.45
6	205466	37.91	242.45
6	206031	38.01	242.45
6	206588	38.11	242.45
6	207145	38.21	242.45
6	207702	38.31	242.45
6	208259	38.41	242.45
6	208816	38.51	242.45
6	209373	38.61	242.45
6	209930	38.71	242.45
6	210487	38.81	242.45
6	211044	38.91	242.45
6	211609	39.01	242.45
6	212166	39.11	242.45
6	212723	39.21	242.45
6	213280	39.31	242.45
6	213837	39.41	242.45
6	214394	39.51	242.45
6	214951	39.61	242.45
6	215508	39.71	242.45
6	216065	39.81	242.45
6	216622	39.91	242.45
6	217187	40.01	242.45
6	217744	40.11	242.45
6	218301	40.21	242.45
6	218858	40.31	242.45
6	219415	40.41	242.45
6	219972	40.51	242.45
6	220529	40.61	242.45
6	221086	40.71	242.45
6	221643	40.81	242.45
6	222200	40.91	242.45
6	222765	41.01	242.45
6	223322	41.11	242.45
6	223879	41.21	242.45
6	224436	41.31	242.45
6	224993	41.41	242.45
6	225550	41.51	242.45
6	226107	41.61	242.45
6	226664	41.71	242.45
6	227221	41.81	242.45
6	227778	41.91	242.45
6	228343	42.01	242.45
6	228900	42.11	242.45
6	229457	42.21	242.45
6	230014	42.31	242.45
6	230571	42.41	242.45
6	231128	42.51	242.45
6	231685	42.61	242.45
6	232242	42.71	242.45
6	232799	42.81	242.45
6	233356	42.91	242.45
6	233921	43.01	242.45
6	234478	43.11	242.45
6	235035	43.21	242.45
6	235592	43.31	242.45
6	236149	43.41	242.45
6	236706	43.51	242.45
6	237263	43.61	242.45
6	237820	43.71	242.45
6	238377	43.81	242.45
6	238934	43.91	242.45
6	239499	44.01	242.45
6	240056	44.11	242.45
6	240613	44.21	242.45
6	241170	44.31	242.45
6	241727	44.41	242.45
6	242284	44.51	242.45
6	242841	44.61	242.45
6	243398	44.71	242.45
6	243955	44.81	242.45
6	244512	44.91	242.45
6	245077	45.01	242.45
6	245634	45.11	242.45
6	246191	45.21	242.45
6	246748	45.31	242.45
6	247305	45.41	242.45
6	247862	45.51	242.45
6	248419	45.61	242.45
6	248976	45.71	242.45
6	249533	45.81	242.45
6	250090	45.91	242.45
6	250655	46.01	242.45
6	251212	46.11	242.45
6	251769	46.21	242.45
6	252326	46.31	242.45
6	252883	46.41	242.45
6	253440	46.51	242.45
6	253997	46.61	242.45
6	254554	46.71	242.45
6	255111	46.81	242.45
6	255668	46.91	242.45
6	256233	47.01	242.45
6	256790	47.11	242.45
6	257347	47.21	242.45
6	257904	47.31	242.45
6	258461	47.41	242.45
6	259018	47.51	242.45
6	259575	47.61	242.45
6	260132	47.71	242.45
6	260689	47.81	242.45
6	261246	47.91	242.45
6	261811	48.01	242.45
6	262368	48.11	242.45
6	262925	48.21	242.45
6	263482	48.31	242.45
6	264039	48.41	242.45
6	264596	48.51	242.45
6	265153	48.61	242.45
6	265710	48.71	242.45
6	266267	48.81	242.45
6	266824	48.91	242.45
6	267389	49.01	242.45
6	267946	49.11	242.45
6	268503	49.21	242.45
6	269060	49.31	242.45
6	269617	49.41	242.45
6	270174	49.51	242.45
6	270731	49.61	242.45
6	271288	49.71	242.45
6	271845	49.81	242.45
6	272402	49.91	242.45
6	272967	50.01	242.45
6	273524	50.11	242.45
6	274081	50.21	242.45
6	274638	50.31	242.45
6	275195	50.41	242.45
6	275752	50.51	242.45
6	276309	50.61	242.45
6	276866	50.71	242.45
6	277423	50.81	242.45
6	277980	50.91	242.45
6	278545	51.01	242.45
6	279102	51.11	242.45
6	279659	51.21	242.45
6	280216	51.31	242.45
6	280773	51.41	242.45
6	281330	51.51	242.45
6	281887	51.61	242.45
6	282444	51.71	242.45
6	283001	51.81	242.45
6	283558	51.91	242.45
6	284123	52.01	242.45
6	284680	52.11	242.45
6	285237	52.21	242.45
6	285794	52.31	242.45
6	286351	52.41	242.45
6	286908	52.51	242.45
6	287465	52.61	242.45
6	288022	52.71	242.45
6	288579	52.81	242.45
6	289136	52.91	242.45
6	289701	53.01	242.45
6	290258	53.11	242.45
6	290815	53.21	242.45
6	291372	53.31	242.45
6	291929	53.41	242.45
6	292486	53.51	242.45
6	293043	53.61	242.45
6	293600	53.71	242.45
6	294157	53.81	242.45
6	294714	53.91	242.45
6	295279	54.01	242.45
6	295836	54.11	242.45
6	296393	54.21	242.45
6	296950	54.31	242.45
6	297507	54.41	242.45
6	298064	54.51	242.45
6	298621	54.61	242.45
6	299178	54.71	242.45
6	299735	54.81	242.45
6	300292	54.91	242.45
6	300857	55.01	242.45
6	301414	55.11	242.45
6	301971	55.21	242.45
6	302528	55.31	242.45
6	303085	55.41	242.45
6	303642	55.51	242.45
6	304199	55.61	242.45
6	304756	55.71	242.45
6	305313	55.81	242.45
6	305870	55.91	242.45
6	306435	56.01	242.45
6	306992	56.11	242.45
6	307549	56.21	242.45
6	308106	56.31	242.45
6	308663	56.41	242.45
6	309220	56.51	242.45
6	309777	56.61	242.45
6	310334	56.71	242.45
6	310891	56.81	242.45
6	311448	56.91	242.45
6	312013	57.01	242.45
6	312570	57.11	242.45
6	313127	57.21	242.45
6	313684	57.31	242.45
6	314241	57.41	242.45
6	314798	57.51	242.45
6	315355	57.61	242.45
6	315912	57.71	242.45
6	316469	57.81	242.45
6	317026	57.91	242.45
6	317591	58.01	242.45
6	318148	58.11	242.45
6	318705	58.21	242.45
6	319262	58.31	242.45
6	319819	58.41	242.45
6	320376	58.51	242.45
6	320933	58.61	242.45
6	321490	58.71	242.45
6	322047	58.81	242.45
6	322604	58.91	242.45
6	323169	59.01	242.45
6	323726	59.11	242.45
6	324283	59.21	242.45
6	324840	59.31	242.45
6	325397	59.41	242.45
6	325954	59.51	242.45
6	326511	59.61	242.45
6	327068	59.71	242.45
6	327625	59.81	242.45
6	328182	59.91	242.45
5	233	1.11	299.5
5	790	1.21	302.278
5	1346	1.31	305.056
5	1903	1.41	307.834
5	2460	1.51	310.612
5	3016	1.61	313.39
5	3572	1.71	316.168
5	4129	1.81	318.946
5	4685	1.91	321.724
5	5252	2.01	324.502
5	5808	2.11	327.28
5	6364	2.21	330.058
5	6920	2.31	332.835
5	7476	2.41	335.613
5	8032	2.51	338.391
5	8588	2.61	341.169
5	9144	2.71	343.947
5	9700	2.81	346.725
5	10256	2.91	349.502
5	10820	3.01	352.28
5	11376	3.11	355.058
5	11932	3.21	357.836
5	12488	3.31	360.614
5	13044	3.41	363.391
5	13600	3.51	366.169
5	14156	3.61	368.947
5	14712	3.71	371.725
5	15268	3.81	374.502
5	15824	3.91	377.28
5	16388	4.01	380.058
5	16944	4.11	382.836
5	17500	4.21	385.613
5	18056	4.31	388.391
5	18612	4.41	391.169
5	19168	4.51	393.947
5	19724	4.61	396.725
5	20280	4.71	399.502
5	20836	4.81	402.28
5	21392	4.91	405.058
5	21957	5.01	407.836
5	22514	5.11	410.613
5	23071	5.21	413.392
5	23628	5.31	416.173
5	24185	5.41	418.958
5	24742	5.51	421.751
5	25299	5.61	424.551
5	25856	5.71	427.361
5	26413	5.81	430.181
5	26970	5.91	433.012
5	27535	6.01	435.855
5	28092	6.11	438.711
5	28649	6.21	441.58
5	29206	6.31	444.461
5	29763	6.41	447.357
5	30320	6.51	450.266
5	30877	6.61	453.189
5	31434	6.71	456.127
5	31991	6.81	459.079
5	32548	6.91	462.045
5	33113	7.01	465.026
5	33670	7.11	468.021
5	34227	7.21	471.032
5	34784	7.31	474.056
5	35341	7.41	477.095
5	35898	7.51	480.143
5	36455	7.61	483.198
5	37012	7.71	486.255
5	37569	7.81	489.311
5	38126	7.91	492.364
5	38691	8.01	495.411
5	39248	8.11	498.451
5	39805	8.21	501.483
5	40362	8.31	504.504
5	40919	8.41	507.516
5	41476	8.51	510.515
5	42033	8.61	513.503
5	42590	8.71	516.478
5	43147	8.81	519.439
5	43704	8.91	522.388
5	44269	9.01	525.323
5	44826	9.11	528.244
5	45383	9.21	531.15
5	45940	9.31	534.043
5	46497	9.41	536.921
5	47054	9.51	539.784
5	47611	9.61	542.633
5	48168	9.71	545.468
5	48725	9.81	548.287
5	49282	9.91	551.092
5	49847	10.01	553.882
5	50404	10.11	556.658
5	50961	10.21	559.423
5	51518	10.31	562.181
5	52075	10.41	564.936
5	52632	10.51	567.692
5	53189	10.61	570.451
5	53746	10.71	573.214
5	54303	10.81	575.985
5	54860	10.91	578.764
5	55425	11.01	581.552
5	55982	11.11	584.351
5	56539	11.21	587.161
5	57096	11.31	589.983
5	57653	11.41	592.818
5	58210	11.51	595.666
5	58767	11.61	598.527
5	59324	11.71	601.402
5	59881	11.81	604.29
5	60438	11.91	607.193
5	61003	12.01	610.11
5	61560	12.11	613.041
5	62117	12.21	615.987
5	62674	12.31	618.947
5	63231	12.41	621.922
5	63788	12.51	624.908
5	64345	12.61	627.903
5	64902	12.71	630.902
5	65459	12.81	633.902
5	66016	12.91	636.899
5	66581	13.01	639.893
5	67138	13.11	642.88
5	67695	13.21	645.859
5	68252	13.31	648.829
5	68809	13.41	651.788
5	69366	13.51	654.737
5	69923	13.61	657.674
5	70480	13.71	660.598
5	71037	13.81	663.51
5	71594	13.91	666.409
5	72159	14.01	669.294
5	72716	14.11	672.165
5	73273	14.21	675.022
5	73830	14.31	677.865
5	74387	14.41	680.693
5	74944	14.51	683.508
5	75501	14.61	686.307
5	76058	14.71	689.092
5	76615	14.81	691.862
5	77172	14.91	694.618
5	77737	15.01	697.359
5	78294	15.11	700.087
5	78851	15.21	702.805
5	79408	15.31	705.519
5	79965	15.41	708.23
5	80522	15.51	710.943
5	81079	15.61	713.66
5	81636	15.71	716.383
5	82193	15.81	719.113
5	82750	15.91	721.852
5	83315	16.01	724.601
5	83872	16.11	727.36
5	84429	16.21	730.132
5	84986	16.31	732.915
5	85543	16.41	735.711
5	86100	16.51	738.521
5	86657	16.61	741.343
5	87214	16.71	744.18
5	87771	16.81	747.03
5	88328	16.91	749.895
5	88893	17.01	752.774
5	89450	17.11	755.667
5	90007	17.21	758.575
5	90564	17.31	761.497
5	91121	17.41	764.434
5	91678	17.51	767.384
5	92235	17.61	770.343
5	92792	17.71	773.307
5	93349	17.81	776.273
5	93906	17.91	779.237
5	94471	18.01	782.198
5	95028	18.11	785.152
5	95585	18.21	788.1
5	96142	18.31	791.038
5	96699	18.41	793.966
5	97256	18.51	796.884
5	97813	18.61	799.79
5	98370	18.71	802.683
5	98927	18.81	805.564
5	99484	18.91	808.432
5	100049	19.01	811.286
5	100606	19.11	814.127
5	101163	19.21	816.953
5	101720	19.31	819.766
5	102277	19.41	822.564
5	102834	19.51	825.348
5	103391	19.61	828.117
5	103948	19.71	830.872
5	104505	19.81	833.612
5	105062	19.91	836.337
5	105627	20.01	839.048
5	106184	20.11	841.746
5	106741	20.21	844.436
5	107298	20.31	847.121
5	107855	20.41	849.806
5	108412	20.51	852.492
5	108969	20.61	855.183
5	109526	20.71	857.879
5	110083	20.81	860.584
5	110640	20.91	863.297
5	111205	21.01	866.021
5	111762	21.11	868.756
5	112319	21.21	871.502
5	112876	21.31	874.261
5	113433	21.41	877.032
5	113990	21.51	879.817
5	114547	21.61	882.615
5	115104	21.71	885.427
5	115661	21.81	888.253
5	116218	21.91	891.093
5	116783	22.01	893.948
5	117340	22.11	896.817
5	117897	22.21	899.7
5	118454	22.31	902.598
5	119011	22.41	905.511
5	119568	22.51	908.437
5	120125	22.61	911.373
5	120682	22.71	914.315
5	121239	22.81	917.259
5	121796	22.91	920.202
5	122361	23.01	923.141
5	122918	23.11	926.075
5	123475	23.21	929.002
5	124032	23.31	931.919
5	124589	23.41	934.828
5	125146	23.51	937.725
5	125703	23.61	940.611
5	126260	23.71	943.485
5	126817	23.81	946.346
5	127374	23.91	949.194
5	127939	24.01	952.029
5	128496	24.11	954.849
5	129053	24.21	957.656
5	129610	24.31	960.449
5	130167	24.41	963.228
5	130724	24.51	965.992
5	131281	24.61	968.742
5	131838	24.71	971.477
5	132395	24.81	974.197
5	132952	24.91	976.903
5	133517	25.01	979.594
5	134074	25.11	982.274
5	134631	25.21	984.945
5	135188	25.31	987.613
5	135745	25.41	990.28
5	136302	25.51	992.949
5	136859	25.61	995.622
5	137416	25.71	998.302
5	137973	25.81	1000.99
5	138530	25.91	1003.69
5	139095	26.01	1006.4
5	139652	26.11	1009.11
5	140209	26.21	1011.84
5	140766	26.31	1014.59
5	141323	26.41	1017.34
5	141880	26.51	1020.11
5	142437	26.61	1022.89
5	142994	26.71	1025.69
5	143551	26.81	1028.5
5	144108	26.91	1031.32
5	144673	27.01	1034.16
5	145230	27.11	1037.02
5	145787	27.21	1039.88
5	146344	27.31	1042.77
5	146901	27.41	1045.66
5	147458	27.51	1048.57
5	148015	27.61	1051.5
5	148572	27.71	1054.42
5	149129	27.81	1057.35
5	149686	27.91	1060.28
5	150251	28.01	1063.21
5	150808	28.11	1066.13
5	151365	28.21	1069.04
5	151922	28.31	1071.95
5	152479	28.41	1074.85
5	153036	28.51	1077.73
5	153593	28.61	1080.6
5	154150	28.71	1083.47
5	154707	28.81	1086.32
5	155264	28.91	1089.15
5	155829	29.01	1091.97
5	156386	29.11	1094.78
5	156943	29.21	1097.58
5	157500	29.31	1100.36
5	158057	29.41	1103.13
5	158614	29.51	1105.88
5	159171	29.61	1108.62
5	159728	29.71	1111.34
5	160285	29.81	1114.05
5	160842	29.91	1116.74
5	161407	30.01	1119.42
5	161964	30.11	1122.09
5	162521	30.21	1124.75
5	163078	30.31	1127.41
5	163635	30.41	1130.06
5	164192	30.51	1132.72
5	164749	30.61	1135.39
5	165306	30.71	1138.06
5	165863	30.81	1140.73
5	166420	30.91	1143.42
5	166985	31.01	1146.12
5	167542	31.11	1148.83
5	168099	31.21	1151.55
5	168656	31.31	1154.28
5	169213	31.41	1157.03
5	169770	31.51	1159.79
5	170327	31.61	1162.56
5	170884	31.71	1165.35
5	171441	31.81	1168.15
5	171998	31.91	1170.96
5	172563	32.01	1173.79
5	173120	32.11	1176.64
5	173677	32.21	1179.49
5	174234	32.31	1182.37
5	174791	32.41	1185.25
5	175348	32.51	1188.16
5	175905	32.61	1191.07
5	176462	32.71	1193.99
5	177019	32.81	1196.91
5	177576	32.91	1199.83
5	178141	33.01	1202.75
5	178698	33.11	1205.66
5	179255	33.21	1208.57
5	179812	33.31	1211.47
5	180369	33.41	1214.36
5	180926	33.51	1217.23
5	181483	33.61	1220.1
5	182040	33.71	1222.96
5	182597	33.81	1225.8
5	183154	33.91	1228.63
5	183719	34.01	1231.44
5	184276	34.11	1234.25
5	184833	34.21	1237.03
5	185390	34.31	1239.81
5	185947	34.41	1242.57
5	186504	34.51	1245.31
5	187061	34.61	1248.05
5	187618	34.71	1250.76
5	188175	34.81	1253.46
5	188732	34.91	1256.15
5	189297	35.01	1258.82
5	189854	35.11	1261.49
5	190411	35.21	1264.14
5	190968	35.31	1266.79
5	191525	35.41	1269.44
5	192082	35.51	1272.09
5	192639	35.61	1274.75
5	193196	35.71	1277.42
5	193753	35.81	1280.09
5	194310	35.91	1282.77
5	194875	36.01	1285.46
5	195432	36.11	1288.17
5	195989	36.21	1290.88
5	196546	36.31	1293.61
5	197103	36.41	1296.35
5	197660	36.51	1299.1
5	198217	36.61	1301.87
5	198774	36.71	1304.65
5	199331	36.81	1307.45
5	199888	36.91	1310.26
5	200453	37.01	1313.08
5	201010	37.11	1315.92
5	201567	37.21	1318.77
5	202124	37.31	1321.64
5	202681	37.41	1324.52
5	203238	37.51	1327.42
5	203795	37.61	1330.33
5	204352	37.71	1333.24
5	204909	37.81	1336.16
5	205466	37.91	1339.08
5	206031	38.01	1341.99
5	206588	38.11	1344.9
5	207145	38.21	1347.8
5	207702	38.31	1350.7
5	208259	38.41	1353.58
5	208816	38.51	1356.45
5	209373	38.61	1359.32
5	209930	38.71	1362.17
5	210487	38.81	1365.01
5	211044	38.91	1367.83
5	211609	39.01	1370.64
5	212166	39.11	1373.44
5	212723	39.21	1376.23
5	213280	39.31	1379
5	213837	39.41	1381.75
5	214394	39.51	1384.5
5	214951	39.61	1387.22
5	215508	39.71	1389.94
5	216065	39.81	1392.63
5	216622	39.91	1395.32
5	217187	40.01	1397.99
5	217744	40.11	1400.65
5	218301	40.21	1403.3
5	218858	40.31	1405.94
5	219415	40.41	1408.59
5	219972	40.51	1411.24
5	220529	40.61	1413.89
5	221086	40.71	1416.56
5	221643	40.81	1419.22
5	222200	40.91	1421.9
5	222765	41.01	1424.59
5	223322	41.11	1427.29
5	223879	41.21	1430.01
5	224436	41.31	1432.73
5	224993	41.41	1435.47
5	225550	41.51	1438.22
5	226107	41.61	1440.98
5	226664	41.71	1443.76
5	227221	41.81	1446.55
5	227778	41.91	1449.36
5	228343	42.01	1452.18
5	228900	42.11	1455.02
5	229457	42.21	1457.87
5	230014	42.31	1460.73
5	230571	42.41	1463.61
5	231128	42.51	1466.51
5	231685	42.61	1469.41
5	232242	42.71	1472.32
5	232799	42.81	1475.24
5	233356	42.91	1478.15
5	233921	43.01	1481.06
5	234478	43.11	1483.97
5	235035	43.21	1486.87
5	235592	43.31	1489.76
5	236149	43.41	1492.65
5	236706	43.51	1495.52
5	237263	43.61	1498.38
5	237820	43.71	1501.23
5	238377	43.81	1504.06
5	238934	43.91	1506.89
5	239499	44.01	1509.7
5	240056	44.11	1512.49
5	240613	44.21	1515.28
5	241170	44.31	1518.05
5	241727	44.41	1520.8
5	242284	44.51	1523.54
5	242841	44.61	1526.26
5	243398	44.71	1528.98
5	243955	44.81	1531.67
5	244512	44.91	1534.35
5	245077	45.01	1537.02
5	245634	45.11	1539.68
5	246191	45.21	1542.32
5	246748	45.31	1544.97
5	247305	45.41	1547.62
5	247862	45.51	1550.26
5	248419	45.61	1552.92
5	248976	45.71	1555.58
5	249533	45.81	1558.24
5	250090	45.91	1560.92
5	250655	46.01	1563.61
5	251212	46.11	1566.31
5	251769	46.21	1569.02
5	252326	46.31	1571.74
5	252883	46.41	1574.48
5	253440	46.51	1577.23
5	253997	46.61	1579.99
5	254554	46.71	1582.77
5	255111	46.81	1585.56
5	255668	46.91	1588.36
5	256233	47.01	1591.18
5	256790	47.11	1594.02
5	257347	47.21	1596.87
5	257904	47.31	1599.73
5	258461	47.41	1602.61
5	259018	47.51	1605.5
5	259575	47.61	1608.4
5	260132	47.71	1611.31
5	260689	47.81	1614.23
5	261246	47.91	1617.14
5	261811	48.01	1620.05
5	262368	48.11	1622.96
5	262925	48.21	1625.86
5	263482	48.31	1628.75
5	264039	48.41	1631.63
5	264596	48.51	1634.5
5	265153	48.61	1637.36
5	265710	48.71	1640.21
5	266267	48.81	1643.04
5	266824	48.91	1645.86
5	267389	49.01	1648.67
5	267946	49.11	1651.47
5	268503	49.21	1654.25
5	269060	49.31	1657.02
5	269617	49.41	1659.77
5	270174	49.51	1662.51
5	270731	49.61	1665.23
5	271288	49.71	1667.94
5	271845	49.81	1670.64
5	272402	49.91	1673.32
5	272967	50.01	1675.98
5	273524	50.11	1678.64
5	274081	50.21	1681.29
5	274638	50.31	1683.93
5	275195	50.41	1686.58
5	275752	50.51	1689.22
5	276309	50.61	1691.88
5	276866	50.71	1694.53
5	277423	50.81	1697.2
5	277980	50.91	1699.88
5	278545	51.01	1702.56
5	279102	51.11	1705.26
5	279659	51.21	1707.97
5	280216	51.31	1710.69
5	280773	51.41	1713.43
5	281330	51.51	1716.18
5	281887	51.61	1718.94
5	282444	51.71	1721.72
5	283001	51.81	1724.51
5	283558	51.91	1727.31
5	284123	52.01	1730.13
5	284680	52.11	1732.96
5	285237	52.21	1735.81
5	285794	52.31	1738.67
5	286351	52.41	1741.55
5	286908	52.51	1744.44
5	287465	52.61	1747.35
5	288022	52.71	1750.26
5	288579	52.81	1753.17
5	289136	52.91	1756.08
5	289701	53.01	1758.99
5	290258	53.11	1761.9
5	290815	53.21	1764.8
5	291372	53.31	1767.69
5	291929	53.41	1770.57
5	292486	53.51	1773.44
5	293043	53.61	1776.3
5	293600	53.71	1779.14
5	294157	53.81	1781.98
5	294714	53.91	1784.8
5	295279	54.01	1787.61
5	295836	54.11	1790.4
5	296393	54.21	1793.18
5	296950	54.31	1795.95
5	297507	54.41	1798.7
5	298064	54.51	1801.44
5	298621	54.61	1804.16
5	299178	54.71	1806.87
5	299735	54.81	1809.57
5	300292	54.91	1812.25
5	300857	55.01	1814.91
5	301414	55.11	1817.57
5	301971	55.21	1820.22
5	302528	55.31	1822.86
5	303085	55.41	1825.5
5	303642	55.51	1828.15
5	304199	55.61	1830.8
5	304756	55.71	1833.46
5	305313	55.81	1836.13
5	305870	55.91	1838.8
5	306435	56.01	1841.49
5	306992	56.11	1844.19
5	307549	56.21	1846.9
5	308106	56.31	1849.62
5	308663	56.41	1852.35
5	309220	56.51	1855.1
5	309777	56.61	1857.86
5	310334	56.71	1860.64
5	310891	56.81	1863.43
5	311448	56.91	1866.23
5	312013	57.01	1869.05
5	312570	57.11	1871.88
5	313127	57.21	1874.73
5	313684	57.31	1877.59
5	314241	57.41	1880.47
5	314798	57.51	1883.36
5	315355	57.61	1886.26
5	315912	57.71	1889.17
5	316469	57.81	1892.09
5	317026	57.91	1895
5	317591	58.01	1897.91
5	318148	58.11	1900.81
5	318705	58.21	1903.71
5	319262	58.31	1906.6
5	319819	58.41	1909.48
5	320376	58.51	1912.35
5	320933	58.61	1915.21
5	321490	58.71	1918.06
5	322047	58.81	1920.89
5	322604	58.91	1923.71
5	323169	59.01	1926.52
5	323726	59.11	1929.31
5	324283	59.21	1932.1
5	324840	59.31	1934.86
5	325397	59.41	1937.61
5	325954	59.51	1940.35
5	326511	59.61	1943.08
5	327068	59.71	1945.78
5	327625	59.81	1948.48
5	328182	59.91	1951.16
4	233	1.11	27.78
4	790	1.21	27.7799
4	1346	1.31	27.7798
4	1903	1.41	27.7797
4	2460	1.51	27.7796
4	3016	1.61	27.7795
4	3572	1.71	27.7794
4	4129	1.81	27.7792
4	4685	1.91	27.7791
4	5252	2.01	27.7789
4	5808	2.11	27.7788
4	6364	2.21	27.7787
4	6920	2.31	27.7785
4	7476	2.41	27.7784
4	8032	2.51	27.7783
4	8588	2.61	27.7782
4	9144	2.71	27.7782
4	9700	2.81	27.7781
4	10256	2.91	27.778
4	10820	3.01	27.7779
4	11376	3.11	27.7779
4	11932	3.21	27.7779
4	12488	3.31	27.7778
4	13044	3.41	27.7778
4	13600	3.51	27.7778
4	14156	3.61	27.7777
4	14712	3.71	27.7777
4	15268	3.81	27.7777
4	15824	3.91	27.7777
4	16388	4.01	27.7777
4	16944	4.11	27.7777
4	17500	4.21	27.7777
4	18056	4.31	27.7777
4	18612	4.41	27.7777
4	19168	4.51	27.7777
4	19724	4.61	27.7777
4	20280	4.71	27.7777
4	20836	4.81	27.7777
4	21392	4.91	27.7777
4	21957	5.01	27.7777
4	22514	5.11	27.778
4	23071	5.21	27.7926
4	23628	5.31	27.8297
4	24185	5.41	27.8871
4	24742	5.51	27.9611
4	25299	5.61	28.0488
4	25856	5.71	28.1477
4	26413	5.81	28.2558
4	26970	5.91	28.3713
4	27535	6.01	28.4931
4	28092	6.11	28.62
4	28649	6.21	28.751
4	29206	6.31	28.8854
4	29763	6.41	29.0226
4	30320	6.51	29.1621
4	30877	6.61	29.3035
4	31434	6.71	29.4465
4	31991	6.81	29.5907
4	32548	6.91	29.7359
4	33113	7.01	29.882
4	33670	7.11	30.0288
4	34227	7.21	30.1762
4	34784	7.31	30.3195
4	35341	7.41	30.4419
4	35898	7.51	30.5238
4	36455	7.61	30.564
4	37012	7.71	30.5701
4	37569	7.81	30.5481
4	38126	7.91	30.5032
4	38691	8.01	30.4394
4	39248	8.11	30.36
4	39805	8.21	30.268
4	40362	8.31	30.1656
4	40919	8.41	30.0546
4	41476	8.51	29.9366
4	42033	8.61	29.8129
4	42590	8.71	29.6844
4	43147	8.81	29.5521
4	43704	8.91	29.4166
4	44269	9.01	29.2785
4	44826	9.11	29.1383
4	45383	9.21	28.9963
4	45940	9.31	28.8528
4	46497	9.41	28.7082
4	47054	9.51	28.5626
4	47611	9.61	28.4163
4	48168	9.71	28.2692
4	48725	9.81	28.1217
4	49282	9.91	27.9737
4	49847	10.01	27.827
4	50404	10.11	27.6985
4	50961	10.21	27.6089
4	51518	10.31	27.5614
4	52075	10.41	27.5494
4	52632	10.51	27.5665
4	53189	10.61	27.6074
4	53746	10.71	27.668
4	54303	10.81	27.7446
4	54860	10.91	27.8344
4	55425	11.01	27.935
4	55982	11.11	28.0445
4	56539	11.21	28.1613
4	57096	11.31	28.284
4	57653	11.41	28.4117
4	58210	11.51	28.5433
4	58767	11.61	28.6783
4	59324	11.71	28.8159
4	59881	11.81	28.9558
4	60438	11.91	29.0975
4	61003	12.01	29.2407
4	61560	12.11	29.3851
4	62117	12.21	29.5305
4	62674	12.31	29.6765
4	63231	12.41	29.8111
4	63788	12.51	29.9142
4	64345	12.61	29.9756
4	64902	12.71	29.9991
4	65459	12.81	29.9914
4	66016	12.91	29.9582
4	66581	13.01	29.9039
4	67138	13.11	29.8325
4	67695	13.21	29.7469
4	68252	13.31	29.6498
4	68809	13.41	29.5432
4	69366	13.51	29.4288
4	69923	13.61	29.308
4	70480	13.71	29.1819
4	71037	13.81	29.0515
4	71594	13.91	28.9177
4	72159	14.01	28.7809
4	72716	14.11	28.6417
4	73273	14.21	28.5006
4	73830	14.31	28.3579
4	74387	14.41	28.2139
4	74944	14.51	28.0688
4	75501	14.61	27.9228
4	76058	14.71	27.7762
4	76615	14.81	27.6289
4	77172	14.91	27.4812
4	77737	15.01	27.3406
4	78294	15.11	27.2257
4	78851	15.21	27.1523
4	79408	15.31	27.119
4	79965	15.41	27.1186
4	80522	15.51	27.1453
4	81079	15.61	27.1941
4	81636	15.71	27.2611
4	82193	15.81	27.343
4	82750	15.91	27.4371
4	83315	16.01	27.5413
4	83872	16.11	27.6537
4	84429	16.21	27.7729
4	84986	16.31	27.8976
4	85543	16.41	28.0268
4	86100	16.51	28.1598
4	86657	16.61	28.2958
4	87214	16.71	28.4344
4	87771	16.81	28.575
4	88328	16.91	28.7173
4	88893	17.01	28.8609
4	89450	17.11	29.0057
4	90007	17.21	29.1515
4	90564	17.31	29.2979
4	91121	17.41	29.4372
4	91678	17.51	29.5508
4	92235	17.61	29.6231
4	92792	17.71	29.6556
4	93349	17.81	29.6552
4	93906	17.91	29.628
4	94471	18.01	29.5787
4	95028	18.11	29.5113
4	95585	18.21	29.4291
4	96142	18.31	29.3347
4	96699	18.41	29.2303
4	97256	18.51	29.1177
4	97813	18.61	28.9984
4	98370	18.71	28.8736
4	98927	18.81	28.7442
4	99484	18.91	28.6112
4	100049	19.01	28.4751
4	100606	19.11	28.3365
4	101163	19.21	28.1958
4	101720	19.31	28.0535
4	102277	19.41	27.9098
4	102834	19.51	27.765
4	103391	19.61	27.6192
4	103948	19.71	27.4727
4	104505	19.81	27.3255
4	105062	19.91	27.178
4	105627	20.01	27.0411
4	106184	20.11	26.9346
4	106741	20.21	26.8699
4	107298	20.31	26.8437
4	107855	20.41	26.8492
4	108412	20.51	26.8806
4	108969	20.61	26.9334
4	109526	20.71	27.0036
4	110083	20.81	27.0881
4	110640	20.91	27.1844
4	111205	21.01	27.2904
4	111762	21.11	27.4043
4	112319	21.21	27.5246
4	112876	21.31	27.6503
4	113433	21.41	27.7804
4	113990	21.51	27.914
4	114547	21.61	28.0506
4	115104	21.71	28.1896
4	115661	21.81	28.3305
4	116218	21.91	28.4731
4	116783	22.01	28.617
4	117340	22.11	28.762
4	117897	22.21	28.9079
4	118454	22.31	29.0545
4	119011	22.41	29.1968
4	119568	22.51	29.3172
4	120125	22.61	29.3965
4	120682	22.71	29.4347
4	121239	22.81	29.439
4	121796	22.91	29.4156
4	122361	23.01	29.3695
4	122918	23.11	29.3047
4	123475	23.21	29.2246
4	124032	23.31	29.132
4	124589	23.41	29.029
4	125146	23.51	28.9176
4	125703	23.61	28.7993
4	126260	23.71	28.6753
4	126817	23.81	28.5466
4	127374	23.91	28.414
4	127939	24.01	28.2784
4	128496	24.11	28.1401
4	129053	24.21	27.9998
4	129610	24.31	27.8577
4	130167	24.41	27.7142
4	130724	24.51	27.5695
4	131281	24.61	27.4239
4	131838	24.71	27.2775
4	132395	24.81	27.1304
4	132952	24.91	26.983
4	133517	25.01	26.8485
4	134074	25.11	26.7474
4	134631	25.21	26.6882
4	135188	25.31	26.6666
4	135745	25.41	26.6759
4	136302	25.51	26.7104
4	136859	25.61	26.7657
4	137416	25.71	26.8379
4	137973	25.81	26.9242
4	138530	25.91	27.0219
4	139095	26.01	27.129
4	139652	26.11	27.2438
4	140209	26.21	27.3649
4	140766	26.31	27.4912
4	141323	26.41	27.6218
4	141880	26.51	27.7559
4	142437	26.61	27.8928
4	142994	26.71	28.0321
4	143551	26.81	28.1733
4	144108	26.91	28.3161
4	144673	27.01	28.4601
4	145230	27.11	28.6053
4	145787	27.21	28.7513
4	146344	27.31	28.898
4	146901	27.41	29.0422
4	147458	27.51	29.1669
4	148015	27.61	29.2518
4	148572	27.71	29.2949
4	149129	27.81	29.3032
4	149686	27.91	29.2831
4	150251	28.01	29.2397
4	150808	28.11	29.1772
4	151365	28.21	29.0989
4	151922	28.31	29.0077
4	152479	28.41	28.906
4	153036	28.51	28.7956
4	153593	28.61	28.6781
4	154150	28.71	28.5547
4	154707	28.81	28.4266
4	155264	28.91	28.2945
4	155829	29.01	28.1592
4	156386	29.11	28.0213
4	156943	29.21	27.8812
4	157500	29.31	27.7393
4	158057	29.41	27.596
4	158614	29.51	27.4514
4	159171	29.61	27.3059
4	159728	29.71	27.1596
4	160285	29.81	27.0126
4	160842	29.91	26.8653
4	161407	30.01	26.7322
4	161964	30.11	26.6344
4	162521	30.21	26.5786
4	163078	30.31	26.5598
4	163635	30.41	26.5713
4	164192	30.51	26.6077
4	164749	30.61	26.6645
4	165306	30.71	26.738
4	165863	30.81	26.8253
4	166420	30.91	26.9238
4	166985	31.01	27.0316
4	167542	31.11	27.147
4	168099	31.21	27.2686
4	168656	31.31	27.3953
4	169213	31.41	27.5262
4	169770	31.51	27.6605
4	170327	31.61	27.7976
4	170884	31.71	27.9371
4	171441	31.81	28.0784
4	171998	31.91	28.2213
4	172563	32.01	28.3655
4	173120	32.11	28.5107
4	173677	32.21	28.6568
4	174234	32.31	28.8036
4	174791	32.41	28.949
4	175348	32.51	29.0763
4	175905	32.61	29.1649
4	176462	32.71	29.2116
4	177019	32.81	29.223
4	177576	32.91	29.2054
4	178141	33.01	29.1639
4	178698	33.11	29.103
4	179255	33.21	29.0261
4	179812	33.31	28.9361
4	180369	33.41	28.8352
4	180926	33.51	28.7256
4	181483	33.61	28.6087
4	182040	33.71	28.4858
4	182597	33.81	28.3581
4	183154	33.91	28.2264
4	183719	34.01	28.0913
4	184276	34.11	27.9536
4	184833	34.21	27.8137
4	185390	34.31	27.672
4	185947	34.41	27.5288
4	186504	34.51	27.3844
4	187061	34.61	27.2389
4	187618	34.71	27.0927
4	188175	34.81	26.9458
4	188732	34.91	26.7985
4	189297	35.01	26.6664
4	189854	35.11	26.5704
4	190411	35.21	26.5166
4	190968	35.31	26.4994
4	191525	35.41	26.5123
4	192082	35.51	26.5498
4	192639	35.61	26.6075
4	193196	35.71	26.6818
4	193753	35.81	26.7696
4	194310	35.91	26.8687
4	194875	36.01	26.9769
4	195432	36.11	27.0926
4	195989	36.21	27.2145
4	196546	36.31	27.3414
4	197103	36.41	27.4724
4	197660	36.51	27.6069
4	198217	36.61	27.7442
4	198774	36.71	27.8837
4	199331	36.81	28.0251
4	199888	36.91	28.1681
4	200453	37.01	28.3123
4	201010	37.11	28.4576
4	201567	37.21	28.6037
4	202124	37.31	28.7505
4	202681	37.41	28.8966
4	203238	37.51	29.0254
4	203795	37.61	29.1162
4	204352	37.71	29.1649
4	204909	37.81	29.1779
4	205466	37.91	29.1617
4	206031	38.01	29.1214
4	206588	38.11	29.0614
4	207145	38.21	28.9852
4	207702	38.31	28.8958
4	208259	38.41	28.7955
4	208816	38.51	28.6863
4	209373	38.61	28.5697
4	209930	38.71	28.4471
4	210487	38.81	28.3196
4	211044	38.91	28.1881
4	211609	39.01	28.0532
4	212166	39.11	27.9157
4	212723	39.21	27.7758
4	213280	39.31	27.6342
4	213837	39.41	27.4911
4	214394	39.51	27.3467
4	214951	39.61	27.2013
4	215508	39.71	27.0551
4	216065	39.81	26.9082
4	216622	39.91	26.7611
4	217187	40.01	26.6297
4	217744	40.11	26.535
4	218301	40.21	26.4824
4	218858	40.31	26.4662
4	219415	40.41	26.4799
4	219972	40.51	26.5181
4	220529	40.61	26.5763
4	221086	40.71	26.6511
4	221643	40.81	26.7393
4	222200	40.91	26.8387
4	222765	41.01	26.9472
4	223322	41.11	27.0631
4	223879	41.21	27.1851
4	224436	41.31	27.3122
4	224993	41.41	27.4434
4	225550	41.51	27.5779
4	226107	41.61	27.7153
4	226664	41.71	27.8549
4	227221	41.81	27.9963
4	227778	41.91	28.1394
4	228343	42.01	28.2836
4	228900	42.11	28.4289
4	229457	42.21	28.5751
4	230014	42.31	28.7219
4	230571	42.41	28.8683
4	231128	42.51	28.9979
4	231685	42.61	29.0898
4	232242	42.71	29.1397
4	232799	42.81	29.1536
4	233356	42.91	29.1381
4	233921	43.01	29.0984
4	234478	43.11	29.0389
4	235035	43.21	28.9632
4	235592	43.31	28.8741
4	236149	43.41	28.774
4	236706	43.51	28.665
4	237263	43.61	28.5486
4	237820	43.71	28.4262
4	238377	43.81	28.2989
4	238934	43.91	28.1674
4	239499	44.01	28.0327
4	240056	44.11	27.8951
4	240613	44.21	27.7554
4	241170	44.31	27.6138
4	241727	44.41	27.4707
4	242284	44.51	27.3264
4	242841	44.61	27.181
4	243398	44.71	27.0348
4	243955	44.81	26.8879
4	244512	44.91	26.741
4	245077	45.01	26.61
4	245634	45.11	26.516
4	246191	45.21	26.4641
4	246748	45.31	26.4485
4	247305	45.41	26.4627
4	247862	45.51	26.5012
4	248419	45.61	26.5598
4	248976	45.71	26.6348
4	249533	45.81	26.7233
4	250090	45.91	26.8228
4	250655	46.01	26.9314
4	251212	46.11	27.0475
4	251769	46.21	27.1696
4	252326	46.31	27.2967
4	252883	46.41	27.428
4	253440	46.51	27.5626
4	253997	46.61	27.7
4	254554	46.71	27.8396
4	255111	46.81	27.9812
4	255668	46.91	28.1242
4	256233	47.01	28.2685
4	256790	47.11	28.4138
4	257347	47.21	28.5599
4	257904	47.31	28.7068
4	258461	47.41	28.8534
4	259018	47.51	28.9834
4	259575	47.61	29.0759
4	260132	47.71	29.1263
4	260689	47.81	29.1407
4	261246	47.91	29.1256
4	261811	48.01	29.0863
4	262368	48.11	29.027
4	262925	48.21	28.9515
4	263482	48.31	28.8626
4	264039	48.41	28.7627
4	264596	48.51	28.6538
4	265153	48.61	28.5375
4	265710	48.71	28.4152
4	266267	48.81	28.2879
4	266824	48.91	28.1565
4	267389	49.01	28.0218
4	267946	49.11	27.8843
4	268503	49.21	27.7446
4	269060	49.31	27.603
4	269617	49.41	27.4599
4	270174	49.51	27.3156
4	270731	49.61	27.1703
4	271288	49.71	27.0241
4	271845	49.81	26.8772
4	272402	49.91	26.7303
4	272967	50.01	26.5996
4	273524	50.11	26.506
4	274081	50.21	26.4545
4	274638	50.31	26.4392
4	275195	50.41	26.4537
4	275752	50.51	26.4924
4	276309	50.61	26.5512
4	276866	50.71	26.6263
4	277423	50.81	26.7149
4	277980	50.91	26.8146
4	278545	51.01	26.9232
4	279102	51.11	27.0393
4	279659	51.21	27.1615
4	280216	51.31	27.2887
4	280773	51.41	27.42
4	281330	51.51	27.5546
4	281887	51.61	27.692
4	282444	51.71	27.8317
4	283001	51.81	27.9732
4	283558	51.91	28.1163
4	284123	52.01	28.2606
4	284680	52.11	28.4059
4	285237	52.21	28.5521
4	285794	52.31	28.6989
4	286351	52.41	28.8456
4	286908	52.51	28.9758
4	287465	52.61	29.0686
4	288022	52.71	29.1194
4	288579	52.81	29.134
4	289136	52.91	29.1191
4	289701	53.01	29.0799
4	290258	53.11	29.0208
4	290815	53.21	28.9454
4	291372	53.31	28.8566
4	291929	53.41	28.7567
4	292486	53.51	28.6479
4	293043	53.61	28.5317
4	293600	53.71	28.4094
4	294157	53.81	28.2821
4	294714	53.91	28.1508
4	295279	54.01	28.0161
4	295836	54.11	27.8786
4	296393	54.21	27.7389
4	296950	54.31	27.5973
4	297507	54.41	27.4543
4	298064	54.51	27.3099
4	298621	54.61	27.1646
4	299178	54.71	27.0184
4	299735	54.81	26.8716
4	300292	54.91	26.7247
4	300857	55.01	26.5941
4	301414	55.11	26.5008
4	301971	55.21	26.4495
4	302528	55.31	26.4344
4	303085	55.41	26.4489
4	303642	55.51	26.4878
4	304199	55.61	26.5467
4	304756	55.71	26.6219
4	305313	55.81	26.7105
4	305870	55.91	26.8102
4	306435	56.01	26.9189
4	306992	56.11	27.0351
4	307549	56.21	27.1573
4	308106	56.31	27.2845
4	308663	56.41	27.4158
4	309220	56.51	27.5505
4	309777	56.61	27.6879
4	310334	56.71	27.8276
4	310891	56.81	27.9691
4	311448	56.91	28.1121
4	312013	57.01	28.2564
4	312570	57.11	28.4018
4	313127	57.21	28.5479
4	313684	57.31	28.6948
4	314241	57.41	28.8415
4	314798	57.51	28.9719
4	315355	57.61	29.0648
4	315912	57.71	29.1157
4	316469	57.81	29.1305
4	317026	57.91	29.1157
4	317591	58.01	29.0766
4	318148	58.11	29.0175
4	318705	58.21	28.9422
4	319262	58.31	28.8534
4	319819	58.41	28.7536
4	320376	58.51	28.6448
4	320933	58.61	28.5286
4	321490	58.71	28.4063
4	322047	58.81	28.2791
4	322604	58.91	28.1477
4	323169	59.01	28.0131
4	323726	59.11	27.8756
4	324283	59.21	27.7359
4	324840	59.31	27.5944
4	325397	59.41	27.4513
4	325954	59.51	27.307
4	326511	59.61	27.1617
4	327068	59.71	27.0155
4	327625	59.81	26.8686
4	328182	59.91	26.7218
2	233	1.11	0
2	790	1.21	0
2	1346	1.31	0
2	1903	1.41	0
2	2460	1.51	0
2	3016	1.61	0
2	3572	1.71	0
2	4129	1.81	0
2	4685	1.91	0
2	5252	2.01	0
2	5808	2.11	0
2	6364	2.21	0
2	6920	2.31	0
2	7476	2.41	0
2	8032	2.51	0
2	8588	2.61	0
2	9144	2.71	0
2	9700	2.81	0
2	10256	2.91	0
2	10820	3.01	0
2	11376	3.11	0
2	11932	3.21	0
2	12488	3.31	0
2	13044	3.41	0
2	13600	3.51	0
2	14156	3.61	0
2	14712	3.71	0
2	15268	3.81	0
2	15824	3.91	0
2	16388	4.01	0
2	16944	4.11	0
2	17500	4.21	0
2	18056	4.31	0
2	18612	4.41	0
2	19168	4.51	0
2	19724	4.61	0
2	20280	4.71	0
2	20836	4.81	0
2	21392	4.91	0
2	21957	5.01	0
2	22514	5.11	0
2	23071	5.21	0
2	23628	5.31	0
2	24185	5.41	0
2	24742	5.51	0
2	25299	5.61	0
2	25856	5.71	0
2	26413	5.81	0
2	26970	5.91	0
2	27535	6.01	0
2	28092	6.11	0
2	28649	6.21	0
2	29206	6.31	0
2	29763	6.41	0
2	30320	6.51	0
2	30877	6.61	0
2	31434	6.71	0
2	31991	6.81	0
2	32548	6.91	0
2	33113	7.01	0
2	33670	7.11	0
2	34227	7.21	0
2	34784	7.31	0
2	35341	7.41	0
2	35898	7.51	0
2	36455	7.61	0
2	37012	7.71	0
2	37569	7.81	0
2	38126	7.91	0
2	38691	8.01	0
2	39248	8.11	0
2	39805	8.21	0
2	40362	8.31	0
2	40919	8.41	0
2	41476	8.51	0
2	42033	8.61	0
2	42590	8.71	0
2	43147	8.81	0
2	43704	8.91	0
2	44269	9.01	0
2	44826	9.11	0
2	45383	9.21	0
2	45940	9.31	0
2	46497	9.41	0
2	47054	9.51	0
2	47611	9.61	0
2	48168	9.71	0
2	48725	9.81	0
2	49282	9.91	0
2	49847	10.01	0
2	50404	10.11	0
2	50961	10.21	0
2	51518	10.31	0
2	52075	10.41	0
2	52632	10.51	0
2	53189	10.61	0
2	53746	10.71	0
2	54303	10.81	0
2	54860	10.91	0
2	55425	11.01	0
2	55982	11.11	0
2	56539	11.21	0
2	57096	11.31	0
2	57653	11.41	0
2	58210	11.51	0
2	58767	11.61	0
2	59324	11.71	0
2	59881	11.81	0
2	60438	11.91	0
2	61003	12.01	0
2	61560	12.11	0
2	62117	12.21	0
2	62674	12.31	0
2	63231	12.41	0
2	63788	12.51	0
2	64345	12.61	0
2	64902	12.71	0
2	65459	12.81	0
2	66016	12.91	0
2	66581	13.01	0
2	67138	13.11	0
2	67695	13.21	0
2	68252	13.31	0
2	68809	13.41	0
2	69366	13.51	0
2	69923	13.61	0
2	70480	13.71	0
2	71037	13.81	0
2	71594	13.91	0
2	72159	14.01	0
2	72716	14.11	0
2	73273	14.21	0
2	73830	14.31	0
2	74387	14.41	0
2	74944	14.51	0
2	75501	14.61	0
2	76058	14.71	0
2	76615	14.81	0
2	77172	14.91	0
2	77737	15.01	0
2	78294	15.11	0
2	78851	15.21	0
2	79408	15.31	0
2	79965	15.41	0
2	80522	15.51	0
2	81079	15.61	0
2	81636	15.71	0
2	82193	15.81	0
2	82750	15.91	0
2	83315	16.01	0
2	83872	16.11	0
2	84429	16.21	0
2	84986	16.31	0
2	85543	16.41	0
2	86100	16.51	0
2	86657	16.61	0
2	87214	16.71	0
2	87771	16.81	0
2	88328	16.91	0
2	88893	17.01	0
2	89450	17.11	0
2	90007	17.21	0
2	90564	17.31	0
2	91121	17.41	0
2	91678	17.51	0
2	92235	17.61	0
2	92792	17.71	0
2	93349	17.81	0
2	93906	17.91	0
2	94471	18.01	0
2	95028	18.11	0
2	95585	18.21	0
2	96142	18.31	0
2	96699	18.41	0
2	97256	18.51	0
2	97813	18.61	0
2	98370	18.71	0
2	98927	18.81	0
2	99484	18.91	0
2	100049	19.01	0
2	100606	19.11	0
2	101163	19.21	0
2	101720	19.31	0
2	102277	19.41	0
2	102834	19.51	0
2	103391	19.61	0
2	103948	19.71	0
2	104505	19.81	0
2	105062	19.91	0
2	105627	20.01	0
2	106184	20.11	0
2	106741	20.21	0
2	107298	20.31	0
2	107855	20.41	0
2	108412	20.51	0
2	108969	20.61	0
2	109526	20.71	0
2	110083	20.81	0
2	110640	20.91	0
2	111205	21.01	0
2	111762	21.11	0
2	112319	21.21	0
2	112876	21.31	0
2	113433	21.41	0
2	113990	21.51	0
2	114547	21.61	0
2	115104	21.71	0
2	115661	21.81	0
2	116218	21.91	0
2	116783	22.01	0
2	117340	22.11	0
2	117897	22.21	0
2	118454	22.31	0
2	119011	22.41	0
2	119568	22.51	0
2	120125	22.61	0
2	120682	22.71	0
2	121239	22.81	0
2	121796	22.91	0
2	122361	23.01	0
2	122918	23.11	0
2	123475	23.21	0
2	124032	23.31	0
2	124589	23.41	0
2	125146	23.51	0
2	125703	23.61	0
2	126260	23.71	0
2	126817	23.81	0
2	127374	23.91	0
2	127939	24.01	0
2	128496	24.11	0
2	129053	24.21	0
2	129610	24.31	0
2	130167	24.41	0
2	130724	24.51	0
2	131281	24.61	0
2	131838	24.71	0
2	132395	24.81	0
2	132952	24.91	0
2	133517	25.01	0
2	134074	25.11	0
2	134631	25.21	0
2	135188	25.31	0
2	135745	25.41	0
2	136302	25.51	0
2	136859	25.61	0
2	137416	25.71	0
2	137973	25.81	0
2	138530	25.91	0
2	139095	26.01	0
2	139652	26.11	0
2	140209	26.21	0
2	140766	26.31	0
2	141323	26.41	0
2	141880	26.51	0
2	142437	26.61	0
2	142994	26.71	0
2	143551	26.81	0
2	144108	26.91	0
2	144673	27.01	0
2	145230	27.11	0
2	145787	27.21	0
2	146344	27.31	0
2	146901	27.41	0
2	147458	27.51	0
2	148015	27.61	0
2	148572	27.71	0
2	149129	27.81	0
2	149686	27.91	0
2	150251	28.01	0
2	150808	28.11	0
2	151365	28.21	0
2	151922	28.31	0
2	152479	28.41	0
2	153036	28.51	0
2	153593	28.61	0
2	154150	28.71	0
2	154707	28.81	0
2	155264	28.91	0
2	155829	29.01	0
2	156386	29.11	0
2	156943	29.21	0
2	157500	29.31	0
2	158057	29.41	0
2	158614	29.51	0
2	159171	29.61	0
2	159728	29.71	0
2	160285	29.81	0
2	160842	29.91	0
2	161407	30.01	0
2	161964	30.11	0
2	162521	30.21	0
2	163078	30.31	0
2	163635	30.41	0
2	164192	30.51	0
2	164749	30.61	0
2	165306	30.71	0
2	165863	30.81	0
2	166420	30.91	0
2	166985	31.01	0
2	167542	31.11	0
2	168099	31.21	0
2	168656	31.31	0
2	169213	31.41	0
2	169770	31.51	0
2	170327	31.61	0
2	170884	31.71	0
2	171441	31.81	0
2	171998	31.91	0
2	172563	32.01	0
2	173120	32.11	0
2	173677	32.21	0
2	174234	32.31	0
2	174791	32.41	0
2	175348	32.51	0
2	175905	32.61	0
2	176462	32.71	0
2	177019	32.81	0
2	177576	32.91	0
2	178141	33.01	0
2	178698	33.11	0
2	179255	33.21	0
2	179812	33.31	0
2	180369	33.41	0
2	180926	33.51	0
2	181483	33.61	0
[...]
174	325584	59.454603665749	7
174	326141	59.554597521897	7
174	326698	59.654604377546	7
174	327255	59.754598232641	7
174	327812	59.85460508712	7
174	328369	59.954598940926	7
173	1070	1.255190462705	7
173	1627	1.355197312835	7
173	2184	1.455165162965	7
173	2740	1.555224013094	7
173	3296	1.655204863222	7
173	3853	1.755185713352	7
173	4409	1.855231563482	7
173	4966	1.955186413611	7
173	5532	2.055245263741	7
173	6088	2.15525211387	7
173	6644	2.255206964	7
173	7200	2.35517481413	7
173	7756	2.455207664258	7
173	8312	2.555266514387	7
173	8868	2.655260364516	7
173	9424	2.755241214645	7
173	9980	2.855261064773	7
173	10536	2.955254914902	7
173	11100	3.055196765032	7
173	11656	3.155164615162	7
173	12212	3.255197465291	7
173	12768	3.35519131542	7
173	13324	3.455263165548	7
173	13880	3.555218015677	7
173	14436	3.655198865806	7
173	14992	3.755218715935	7
173	15548	3.855225566064	7
173	16104	3.955258416191	7
173	16668	4.055226266317	7
173	17224	4.155259116443	7
173	17780	4.255200966569	7
173	18336	4.355194816694	7
173	18892	4.455240666819	7
173	19448	4.555260516943	7
173	20004	4.655241367066	7
173	20560	4.755209217189	7
173	21116	4.855216067311	7
173	21672	4.955235917433	7
173	22237	5.055229767555	7
173	22794	5.155197617678	7
173	23351	5.255204467811	7
173	23908	5.355237317979	7
173	24465	5.455179168219	7
173	25022	5.555225018579	7
173	25579	5.655205869114	7
173	26136	5.755199719885	7
173	26693	5.855245570956	7
173	27250	5.955252422397	7
173	27815	6.055259274272	7
173	28372	6.15517512665	7
173	28929	6.255246979596	7
173	29486	6.355240833179	7
173	30043	6.455260687462	7
173	30600	6.555176542507	7
173	31157	6.655183398377	7
173	31714	6.755216255131	7
173	32271	6.855210112826	7
173	32828	6.955242971522	7
173	33393	7.055184831274	7
173	33950	7.155243692141	7
173	34507	7.255172554174	7
173	35064	7.355218417426	7
173	35621	7.455212281934	7
173	36178	7.555167147709	7
173	36735	7.655174014734	7
173	37292	7.755245882975	7
173	37849	7.855187752375	7
173	38406	7.955220622869	7
173	38971	8.055214494386	7
173	39528	8.15522136685	7
173	40085	8.255202240182	7
173	40642	8.355235114304	7
173	41199	8.455202989139	7
173	41756	8.555196864608	7
173	42313	8.65520374064	7
173	42870	8.755249617165	7
173	43427	8.855204494118	7
173	43984	8.955185371432	7
173	44549	9.055218249048	7
173	45106	9.155173126905	7
173	45663	9.255258004946	7
173	46220	9.355264883114	7
173	46777	9.455245761353	7
173	47334	9.55522663961	7
173	47891	9.655194517828	7
173	48448	9.755175395957	7
173	49005	9.855247273939	7
173	49562	9.955176151721	7
173	50127	10.055183029249	7
173	50684	10.15520290648	7
173	51241	10.255261783401	7
173	51798	10.355229660017	7
173	52355	10.455210536363	7
173	52912	10.555191412485	7
173	53469	10.655198288447	7
173	54026	10.755257164315	7
173	54583	10.855264040166	7
173	55140	10.955218916075	7
173	55705	11.05521279212	7
173	56262	11.155232668378	7
173	56819	11.255213544925	7
173	57376	11.355181421833	7
173	57933	11.455214299173	7
173	58490	11.555195177013	7
173	59047	11.655215055419	7
173	59604	11.755247934452	7
173	60161	11.855228814175	7
173	60718	11.955196694646	7
173	61283	12.055255575921	7
173	61840	12.155197458059	7
173	62397	12.255256341114	7
173	62954	12.355237225142	7
173	63511	12.455179110187	7
173	64068	12.555250996277	7
173	64625	12.655179883411	7
173	65182	12.755238771559	7
173	65739	12.855180660678	7
173	66296	12.955252550713	7
173	66861	13.055207441592	7
173	67418	13.155227333242	7
173	67975	13.255260225588	7
173	68532	13.355215118549	7
173	69089	13.455248012048	7
173	69646	13.555215906007	7
173	70203	13.655261800352	7
173	70760	13.75521669501	7
173	71317	13.855197589913	7
173	71874	13.955243484992	7
173	72439	14.055263380184	7
173	72996	14.155231275426	7
173	73553	14.255199170657	7
173	74110	14.355232065817	7
173	74667	14.455238960848	7
173	75224	14.555232855693	7
173	75781	14.655174750295	7
173	76338	14.755181644595	7
173	76895	14.855188538536	7
173	77452	14.955195432062	7
173	78017	15.055202325121	7
173	78574	15.155235217674	7
173	79131	15.255203109714	7
173	79688	15.355184001257	7
173	80245	15.455177892339	7
173	80802	15.555249783012	7
173	81359	15.655243673337	7
173	81916	15.755198563383	7
173	82473	15.855179453222	7
173	83030	15.955173342931	7
173	83595	16.055258232584	7
173	84152	16.155226122253	7
173	84709	16.255220012015	7
173	85266	16.35518790194	7
173	85823	16.455168792092	7
173	86380	16.555240682537	7
173	86937	16.65524757334	7
173	87494	16.75518946456	7
173	88051	16.855196356254	7
173	88608	16.955203248479	7
173	89173	17.05524914129	7
173	89730	17.155191034744	7
173	90287	17.255249928892	7
173	90844	17.35519182379	7
173	91401	17.455211719485	7
173	91958	17.55517961601	7
173	92515	17.655238513366	7
173	93072	17.755167411531	7
173	93629	17.855187310467	7
173	94186	17.955259210117	7
173	94751	18.055266110412	7
173	95308	18.155221011282	7
173	95865	18.255266912646	7
173	96422	18.355208814426	7
173	96979	18.455202716542	7
173	97536	18.555222618914	7
173	98093	18.655190521466	7
173	98650	18.755249424125	7
173	99207	18.855217326821	7
173	99764	18.955263229484	7
173	100329	19.055218132046	7
173	100886	19.155238034444	7
173	101443	19.255218936616	7
173	102000	19.355251838502	7
173	102557	19.45521974004	7
173	103114	19.555265641173	7
173	103671	19.655233541841	7
173	104228	19.75525344199	7
173	104785	19.855169341559	7
173	105342	19.95521524049	7
173	105907	20.055261138734	7
173	106464	20.15525503626	7
173	107021	20.255222933063	7
173	107578	20.355177829167	7
173	108135	20.455249724607	7
173	108692	20.555191619438	7
173	109249	20.655237513723	7
173	109806	20.755179407531	7
173	110363	20.855173300939	7
173	110920	20.95524519402	7
173	111485	21.055252086848	7
173	112042	21.155193979499	7
173	112599	21.255226872044	7
173	113156	21.355259764554	7
173	113713	21.455188657094	7
173	114270	21.55519554973	7
173	114827	21.655228442523	7
173	115384	21.755196335534	7
173	115941	21.855177228821	7
173	116498	21.955184122441	7
173	117063	22.055256016449	7
173	117620	22.155197910901	7
173	118177	22.255217805851	7
173	118734	22.355224701351	7
173	119291	22.455257597455	7
173	119848	22.555212494196	7
173	120405	22.655219391585	7
173	120962	22.755252289603	7
173	121519	22.855233188213	7
173	122076	22.955214087361	7
173	122641	23.055233986983	7
173	123198	23.155214887007	7
173	123755	23.255234787357	7
173	124312	23.355189687954	7
173	124869	23.455170588718	7
173	125426	23.555242489572	7
173	125983	23.655171390439	7
173	126540	23.755191291246	7
173	127097	23.855172191923	7
173	127654	23.955192092402	7
173	128219	24.055211992614	7
173	128776	24.155192892498	7
173	129333	24.255251791993	7
173	129890	24.355193691036	7
173	130447	24.455213589571	7
173	131004	24.55524648754	7
173	131561	24.655253384886	7
173	132118	24.755208281551	7
173	132675	24.855202177477	7
173	133232	24.955170072609	7
173	133797	25.055189966899	7
173	134354	25.155248860321	7
173	134911	25.255177752876	7
173	135468	25.35517164459	7
173	136025	25.455243535503	7
173	136582	25.555211425674	7
173	137139	25.655244315167	7
173	137696	25.755225204055	7
173	138253	25.855258092413	7
173	138810	25.955264980316	7
173	139375	26.055180867841	7
173	139932	26.155213755064	7
173	140489	26.255259642059	7
173	141046	26.355227528894	7
173	141603	26.455182415638	7
173	142160	26.555176302357	7
173	142717	26.655209189113	7
173	143274	26.755203075968	7
173	143831	26.85520996298	7
173	144388	26.955255850208	7
173	144953	27.05521073771	7
173	145510	27.155178625539	7
173	146067	27.255172513753	7
173	146624	27.355192402408	7
173	147181	27.455212291555	7
173	147738	27.555206181234	7
173	148295	27.65518707146	7
173	148852	27.755219962222	7
173	149409	27.855239853482	7
173	149966	27.955220745192	7
173	150531	28.05518863729	7
173	151088	28.155234529707	7
173	151645	28.255189422366	7
173	152202	28.355248315193	7
173	152759	28.455242208109	7
173	153316	28.555223101037	7
173	153873	28.655242993904	7
173	154430	28.755184886634	7
173	154987	28.855204779159	7
173	155544	28.955211671411	7
173	156109	29.055179563325	7
173	156666	29.155173454839	7
173	157223	29.25519334589	7
173	157780	29.355252236422	7
173	158337	29.455233126378	7
173	158894	29.5552400157	7
173	159451	29.655168904333	7
173	160008	29.75525379222	7
173	160565	29.855221679305	7
173	161122	29.955254565533	7
173	161687	30.05518345086	7
173	162244	30.155242335262	7
173	162801	30.255236218743	7
173	163358	30.355256101331	7
173	163915	30.455184983073	7
173	164472	30.555178864025	7
173	165029	30.655224744258	7
173	165586	30.755179623843	7
173	166143	30.855251502857	7
173	166700	30.955258381378	7
173	167265	31.055200259485	7
173	167822	31.155220137252	7
173	168379	31.255253014753	7
173	168936	31.35525989206	7
173	169493	31.455175769244	7
173	170050	31.555234646367	7
173	170607	31.655215523497	7
173	171164	31.755222400694	7
173	171721	31.855164278019	7
173	172278	31.95517115553	7
173	172843	32.055230033287	7
173	173400	32.155262911344	7
173	173957	32.255243789758	7
173	174514	32.355198668588	7
173	175071	32.455166547888	7
173	175628	32.555238427701	7
173	176185	32.655206308045	7
173	176742	32.755187188908	7
173	177299	32.85523307026	7
173	177856	32.955265952053	7
173	178421	33.055181834227	7
173	178978	33.155266716714	7
173	179535	33.255234599442	7
173	180092	33.355267482334	7
173	180649	33.455170365311	7
173	181206	33.555255248301	7
173	181763	33.655262131227	7
173	182320	33.755204014017	7
173	182877	33.855223896603	7
173	183434	33.955191778916	7
173	183999	34.055211660893	7
173	184556	34.15517954247	7
173	185113	34.25523842359	7
173	185670	34.355167304193	7
173	186227	34.455213184223	7
173	186784	34.555207063624	7
173	187341	34.655174942342	7
173	187898	34.75523382032	7
173	188455	34.855214697502	7
173	189012	34.955169573835	7
173	189577	35.055176449275	7
173	190134	35.155183323801	7
173	190691	35.255164197419	7
173	191248	35.355249070157	7
173	191805	35.455242942063	7
173	192362	35.555223813198	7
173	192919	35.655256683629	7
173	193476	35.755263553431	7
173	194033	35.855257422682	7
173	194590	35.95525129146	7
173	195155	36.055258159844	7
173	195712	36.155200027908	7
173	196269	36.255193895727	7
173	196826	36.355174763375	7
173	197383	36.455207630919	7
173	197940	36.555253498427	7
173	198497	36.655208365962	7
173	199054	36.755254233588	7
173	199611	36.855170101365	7
173	200168	36.955202969352	7
173	200733	37.055196837608	7
173	201290	37.15521670619	7
173	201847	37.255249575155	7
173	202404	37.355230444562	7
173	202961	37.455250314464	7
173	203518	37.555231184908	7
173	204075	37.655212055911	7
173	204632	37.755244927466	7
173	205189	37.855186799542	7
173	205746	37.955232672095	7
173	206311	38.055174545065	7
173	206868	38.155220418382	7
173	207425	38.255201291975	7
173	207982	38.35520816577	7
173	208539	38.455254039687	7
173	209096	38.555234913652	7
173	209653	38.655202787589	7
173	210210	38.755170661428	7
173	210767	38.855203535099	7
173	211324	38.955236408534	7
173	211889	39.055178281671	7
173	212446	39.155263154447	7
173	213003	39.255218026803	7
173	213560	39.35526389868	7
173	214117	39.455218770022	7
173	214674	39.555238640771	7
173	215231	39.655193510874	7
173	215788	39.755226380278	7
173	216345	39.855246248925	7
173	216902	39.95520111676	7
173	217467	40.055259983744	7
173	218024	40.155240849853	7
173	218581	40.255182715097	7
173	219138	40.355228579505	7
173	219695	40.455209443126	7
173	220252	40.555177306018	7
173	220809	40.655262168251	7
173	221366	40.7551780299	7
173	221923	40.855197891041	7
173	222480	40.955217751754	7
173	223045	41.055211612117	7
173	223602	41.155218472206	7
173	224159	41.255225332095	7
173	224716	41.355219191855	7
173	225273	41.455213051557	7
173	225830	41.555167911267	7
173	226387	41.655187771049	7
173	226944	41.755259630964	7
173	227501	41.855175491075	7
173	228058	41.95523435144	7
173	228623	42.055241212117	7
173	229180	42.155261073163	7
173	229737	42.255228934635	7
173	230294	42.355261796591	7
173	230851	42.455203659085	7
173	231408	42.555236522163	7
173	231965	42.655256385844	7
173	232522	42.755250250124	7
173	233079	42.855179114971	7
173	233636	42.955237980339	7
173	234201	43.055231846169	7
173	234758	43.155199712394	7
173	235315	43.25524557894	7
173	235872	43.355200445733	7
173	236429	43.455194312696	7
173	236986	43.555240179753	7
173	237543	43.655182046828	7
173	238100	43.755214913852	7
173	238657	43.855169780753	7
173	239214	43.955254647464	7
173	239779	44.055209513923	7
173	240336	44.155190380065	7
173	240893	44.255262245831	7
173	241450	44.355256111162	7
173	242007	44.455262976005	7
173	242564	44.555243840297	7
173	243121	44.655211703988	7
173	243678	44.755205567019	7
173	244235	44.85522542934	7
173	244792	44.955206290892	7
173	245357	45.055252151634	7
173	245914	45.155181011546	7
173	246471	45.255187870636	7
173	247028	45.355194728935	7
173	247585	45.45521458649	7
173	248142	45.555260443361	7
173	248699	45.655254299617	7
173	249256	45.75520915533	7
173	249813	45.855164010583	7
173	250370	45.955261865451	7
173	250935	46.055203720011	7
173	251492	46.155223574342	7
173	252049	46.255178428518	7
173	252606	46.355224282608	7
173	253163	46.455218136682	7
173	253720	46.555198990807	7
173	254277	46.655218845045	7
173	254834	46.75521269946	7
173	255391	46.855167554112	7
173	255948	46.955265409061	7
173	256513	47.055233264361	7
173	257070	47.155227120074	7
173	257627	47.255246976252	7
173	258184	47.355201832956	7
173	258741	47.45519569024	7
173	259298	47.555254548149	7
173	259855	47.655248406702	7
173	260412	47.755190265893	7
173	260969	47.855184125691	7
173	261526	47.955216986051	7
173	262091	48.055249846916	7
173	262648	48.155230708214	7
173	263205	48.255172569875	7
173	263762	48.355231431821	7
173	264319	48.455212293978	7
173	264876	48.555180156267	7
173	265433	48.655265018616	7
173	265990	48.755180880952	7
173	266547	48.855213743205	7
173	267104	48.955194605307	7
173	267669	49.055253467194	7
173	268226	49.155208328804	7
173	268783	49.255254190077	7
173	269340	49.355261050953	7
173	269897	49.455189911376	7
173	270454	49.555222771288	7
173	271011	49.655203630635	7
173	271568	49.755236489362	7
173	272125	49.855204347412	7
173	272682	49.955185204732	7
173	273247	50.055257061277	7
173	273804	50.155198917029	7
173	274361	50.255231771994	7
173	274918	50.355186626204	7
173	275475	50.455232479707	7
173	276032	50.555252332561	7
173	276589	50.655194184833	7
173	277146	50.755227036599	7
173	277703	50.855207887938	7
173	278260	50.955201738926	7
173	278825	51.055260589642	7
173	279382	51.15517644016	7
173	279939	51.255261290557	7
173	280496	51.355164140904	7
173	281053	51.455209991269	7
173	281610	51.555164841716	7
173	282167	51.65521069231	7
173	282724	51.755256543114	7
173	283281	51.855250394187	7
173	283838	51.955166245587	7
173	284403	52.055251097373	7
173	284960	52.155231949601	7
173	285517	52.255238802329	7
173	286074	52.355232655612	7
173	286631	52.455187509506	7
173	287188	52.555181364056	7
173	287745	52.655240219283	7
173	288302	52.755169075179	7
173	288859	52.855175931713	7
173	289416	52.955182788843	7
173	289981	53.055202646505	7
173	290538	53.155248504635	7
173	291095	53.255229363159	7
173	291652	53.355184221998	7
173	292209	53.455217081078	7
173	292766	53.555171940322	7
173	293323	53.655191799655	7
173	293880	53.755237659004	7
173	294437	53.855166518298	7
173	294994	53.95521237747	7
173	295559	54.055167236457	7
173	296116	54.155252095195	7
173	296673	54.255193953622	7
173	297230	54.355200811681	7
173	297787	54.455246669312	7
173	298344	54.555214526461	7
173	298901	54.655234383071	7
173	299458	54.755254239088	7
173	300015	54.855170094453	7
173	300572	54.955215949114	7
173	301137	55.055209803028	7
173	301694	55.155216656174	7
173	302251	55.255262508561	7
173	302808	55.355243360219	7
173	303365	55.455198211194	7
173	303922	55.555244061547	7
173	304479	55.655250911346	7
173	305036	55.755218760666	7
173	305593	55.855251609581	7
173	306150	55.955258458174	7
173	306715	56.055200306519	7
173	307272	56.155207154691	7
173	307829	56.255253002764	7
173	308386	56.35525985081	7
173	308943	56.455266698896	7
173	309500	56.55524754709	7
173	310057	56.655189395453	7
173	310614	56.755261244048	7
173	311171	56.855242092935	7
173	311728	56.955235942171	7
173	312293	57.055216791814	7
173	312850	57.155184641922	7
173	313407	57.25524349255	7
173	313964	57.355198343755	7
173	314521	57.455231195592	7
173	315078	57.555199048106	7
173	315635	57.655166901315	7
173	316192	57.755264755214	7
173	316749	57.855245609773	7
173	317306	57.955252464945	7
173	317871	58.055194320669	7
173	318428	58.15518817688	7
173	318985	58.255221033504	7
173	319542	58.355175890464	7
173	320099	58.455221747684	7
173	320656	58.555189605084	7
173	321213	58.655183462593	7
173	321770	58.755190320136	7
173	322327	58.855171177645	7
173	322884	58.955230035051	7
173	323449	59.055249892287	7
173	324006	59.155178749292	7
173	324563	59.255211606006	7
173	325120	59.35524446237	7
173	325677	59.455199318325	7
173	326234	59.555232173815	7
173	326791	59.655239028784	7
173	327348	59.755180883177	7
173	327905	59.855265736935	7
173	328462	59.955220590006	7
172	5115	2	0
172	10685	3	0
172	16253	4	0
172	21822	5	0
172	27399	6	0
172	32977	7	0
172	38555	8	0
172	44133	9	0
172	49711	10	0
172	55289	11	0
172	60867	12	0
172	66445	13	0
172	72023	14	0
172	77601	15	0
172	83179	16	0
172	88757	17	0
172	94335	18	0
172	99913	19	0
172	105491	20	0
172	111069	21	0
172	116647	22	0
172	122225	23	0
172	127803	24	0
172	133381	25	0
172	138959	26	0
172	144537	27	0
172	150115	28	0
172	155693	29	0
172	161271	30	0
172	166849	31	0
172	172427	32	0
172	178005	33	0
172	183583	34	0
172	189161	35	0
172	194739	36	0
172	200317	37	0
172	205895	38	0
172	211473	39	0
172	217051	40	0
172	222629	41	0
172	228207	42	0
172	233785	43	0
172	239363	44	0
172	244941	45	0
172	250519	46	0
172	256097	47	0
172	261675	48	0
172	267253	49	0
172	272831	50	0
172	278409	51	0
172	283987	52	0
172	289565	53	0
172	295143	54	0
172	300721	55	0
172	306299	56	0
172	311877	57	0
172	317455	58	0
172	323033	59	0
172	328611	60	0
171	5115	2	0.034729
171	10685	3	0.03969
171	16253	4	0.03969
171	21822	5	0.03969
171	27399	6	0.03969
171	32977	7	0.03969
171	38555	8	0.03969
171	44133	9	0.03969
171	49711	10	0.03969
171	55289	11	0.03969
171	60867	12	0.03969
171	66445	13	0.03969
171	72023	14	0.03969
171	77601	15	0.03969
171	83179	16	0.03969
171	88757	17	0.03969
171	94335	18	0.03969
171	99913	19	0.03969
171	105491	20	0.03969
171	111069	21	0.03969
171	116647	22	0.03969
171	122225	23	0.03969
171	127803	24	0.03969
171	133381	25	0.03969
171	138959	26	0.03969
171	144537	27	0.03969
171	150115	28	0.03969
171	155693	29	0.03969
171	161271	30	0.03969
171	166849	31	0.03969
171	172427	32	0.03969
171	178005	33	0.03969
171	183583	34	0.03969
171	189161	35	0.03969
171	194739	36	0.03969
171	200317	37	0.03969
171	205895	38	0.03969
171	211473	39	0.03969
171	217051	40	0.03969
171	222629	41	0.03969
171	228207	42	0.03969
171	233785	43	0.03969
171	239363	44	0.03969
171	244941	45	0.03969
171	250519	46	0.03969
171	256097	47	0.03969
171	261675	48	0.03969
171	267253	49	0.03969
171	272831	50	0.03969
171	278409	51	0.03969
171	283987	52	0.03969
171	289565	53	0.03969
171	295143	54	0.03969
171	300721	55	0.03969
171	306299	56	0.03969
171	311877	57	0.03969
171	317455	58	0.03969
171	323033	59	0.03969
171	328611	60	0.03969
170	5115	2	7
170	10685	3	7
170	16253	4	7
170	21822	5	7
170	27399	6	7
170	32977	7	7
170	38555	8	7
170	44133	9	7
170	49711	10	7
170	55289	11	7
170	60867	12	7
170	66445	13	7
170	72023	14	7
170	77601	15	7
170	83179	16	7
170	88757	17	7
170	94335	18	7
170	99913	19	7
170	105491	20	7
170	111069	21	7
170	116647	22	7
170	122225	23	7
170	127803	24	7
170	133381	25	7
170	138959	26	7
170	144537	27	7
170	150115	28	7
170	155693	29	7
170	161271	30	7
170	166849	31	7
170	172427	32	7
170	178005	33	7
170	183583	34	7
170	189161	35	7
170	194739	36	7
170	200317	37	7
170	205895	38	7
170	211473	39	7
170	217051	40	7
170	222629	41	7
170	228207	42	7
170	233785	43	7
170	239363	44	7
170	244941	45	7
170	250519	46	7
170	256097	47	7
170	261675	48	7
170	267253	49	7
170	272831	50	7
170	278409	51	7
170	283987	52	7
170	289565	53	7
170	295143	54	7
170	300721	55	7
170	306299	56	7
170	311877	57	7
170	317455	58	7
170	323033	59	7
170	328611	60	7
