version 2
run SinusoidalThermalNoiseNoGui-1-20210521-01:03:56-79432
attr beaconInterval 0.1
attr configname SinusoidalThermalNoiseNoGui
attr controller 1
attr datetime 20210521-01:03:56
attr experiment SinusoidalThermalNoiseNoGui
attr headway 0.1
attr inifile omnetpp.ini
attr iterationvars "$thermalNoise=-80, $txPower=100, $packetLossRate=0, $beaconInterval=0.1, $controller=1, $sController=\"CACC\", $headway=0.1, $0=5, $1=0, $nCars=8, $platoonSize=8, $nLanes=1, $ploegH=0.5, $leaderHeadway=1.2, $leaderSpeed=100, $packetSize=200"
attr iterationvarsf thermalNoise=-80,txPower=100,packetLossRate=0,beaconInterval=0.1,controller=1,sController=CACC,headway=0.1,5,0,nCars=8,platoonSize=8,nLanes=1,ploegH=0.5,leaderHeadway=1.2,leaderSpeed=100,packetSize=200-
attr leaderHeadway 1.2
attr leaderSpeed 100
attr measurement "$thermalNoise=-80, $txPower=100, $packetLossRate=0, $beaconInterval=0.1, $controller=1, $sController=\"CACC\", $headway=0.1, $0=5, $1=0, $nCars=8, $platoonSize=8, $nLanes=1, $ploegH=0.5, $leaderHeadway=1.2, $leaderSpeed=100, $packetSize=200"
attr nCars 8
attr nLanes 1
attr network Highway
attr packetLossRate 0
attr packetSize 200
attr platoonSize 8
attr ploegH 0.5
attr processid 79432
attr repetition 0
attr replication #0
attr resultdir results
attr runnumber 1
attr sController "\"CACC\""
attr seedset 0
attr thermalNoise -80
attr txPower 100
param **.coreDebug false
param **.debug false
param **.headway 0.1s
param **.numberOfCars 8
param **.numberOfCarsPerPlatoon 8
param **.numberOfLanes 1
param **.numericController 1
param **.seed 0
param **.traffic.nCars 8
param **.traffic.nLanes 1
param **.traffic.platoonInsertDistance 5m
param **.traffic.platoonInsertHeadway 0s
param **.traffic.platoonInsertSpeed 100kmph
param **.traffic.platoonInsertTime "1 s"
param **.traffic.platoonLeaderHeadway 1.2s
param **.traffic.platoonSize 8
param **.traffic.platooningVType "\"vtypeauto\""
param **.traffic_type "\"PlatoonsTrafficManager\""
param *.**.nic.mac1609_4.bitrate 6Mbps
param *.**.nic.mac1609_4.txPower 100mW
param *.**.nic.mac1609_4.useServiceChannel false
param *.**.nic.phy80211p.analogueModels "xmldoc(\"config.xml\")"
param *.**.nic.phy80211p.decider "xmldoc(\"config.xml\")"
param *.**.nic.phy80211p.maxTXPower 100mW
param *.**.nic.phy80211p.sensitivity -94dBm
param *.**.nic.phy80211p.thermalNoise -80dBm
param *.**.nic.phy80211p.usePropagationDelay true
param *.**.nic.phy80211p.useThermalNoise true
param *.annotations.draw false
param *.connectionManager.drawMaxIntfDist false
param *.connectionManager.maxInterfDist 2600m
param *.connectionManager.sendDirect true
param *.manager.autoShutdown true
param *.manager.configFile "\"./sumocfg/freeway.sumo.cfg\""
param *.manager.host "\"localhost\""
param *.manager.margin 25
param *.manager.moduleDisplayString "\"\""
param *.manager.moduleName "\"node\""
param *.manager.moduleType "\"org.car2x.veins.modules.application.platooning.PlatoonCar\""
param *.manager.updateInterval 0.01s
param *.manager.useGui true
param *.node[*].appl_type "\"SimplePlatooningApp\""
param *.node[*].helper.nCars 8
param *.node[*].helper.nLanes 1
param *.node[*].helper.platoonSize 8
param *.node[*].helper_type "\"PositionHelper\""
param *.node[*].mobility.x 0
param *.node[*].mobility.y 0
param *.node[*].mobility.z 1.895
param *.node[*].prot.beaconingInterval 0.1s
param *.node[*].prot.packetSize 200
param *.node[*].prot.priority 4
param *.node[*].protocol_type "\"SimplePlatooningBeaconing\""
param *.node[*].scenario.accHeadway 0.1s
param *.node[*].scenario.caccC1 0.5
param *.node[*].scenario.caccOmegaN "0.2 Hz"
param *.node[*].scenario.caccXi 1
param *.node[*].scenario.controller "\"CACC\""
param *.node[*].scenario.leaderHeadway 1.2s
param *.node[*].scenario.leaderOscillationFrequency "0.2 Hz"
param *.node[*].scenario.leaderSpeed 100kmph
param *.node[*].scenario.oscillationAmplitude "35 kmph"
param *.node[*].scenario.ploegH 0.5s
param *.node[*].scenario.ploegKd 0.7
param *.node[*].scenario.ploegKp 0.2
param *.node[*].scenario.startOscillating "5 s"
param *.node[*].scenario.useControllerAcceleration true
param *.node[*].scenario.useRealisticEngine false
param *.node[*].scenario_type "\"SinusoidalScenario\""
param *.node[*].unicast.packetLossRate 0
param *.obstacles.debug false
param *.playgroundSizeX 65000m
param *.playgroundSizeY 25000m
param *.playgroundSizeZ 50m
param *.world.use2D false
param *.world.useTorus false

vector 185  Highway.node[0].appl  distance  ETV
vector 186  Highway.node[0].appl  relativeSpeed  ETV
vector 187  Highway.node[0].appl  nodeId  ETV
vector 191  Highway.node[0].appl  acceleration  ETV
vector 192  Highway.node[0].appl  controllerAcceleration  ETV
vector 188  Highway.node[0].appl  speed  ETV
vector 189  Highway.node[0].appl  posx  ETV
vector 190  Highway.node[0].appl  posy  ETV
vector 208  Highway.node[1].appl  distance  ETV
vector 209  Highway.node[1].appl  relativeSpeed  ETV
vector 210  Highway.node[1].appl  nodeId  ETV
vector 214  Highway.node[1].appl  acceleration  ETV
vector 215  Highway.node[1].appl  controllerAcceleration  ETV
vector 211  Highway.node[1].appl  speed  ETV
vector 212  Highway.node[1].appl  posx  ETV
vector 213  Highway.node[1].appl  posy  ETV
vector 231  Highway.node[2].appl  distance  ETV
vector 232  Highway.node[2].appl  relativeSpeed  ETV
vector 233  Highway.node[2].appl  nodeId  ETV
vector 237  Highway.node[2].appl  acceleration  ETV
vector 238  Highway.node[2].appl  controllerAcceleration  ETV
vector 234  Highway.node[2].appl  speed  ETV
vector 235  Highway.node[2].appl  posx  ETV
vector 236  Highway.node[2].appl  posy  ETV
vector 254  Highway.node[3].appl  distance  ETV
vector 255  Highway.node[3].appl  relativeSpeed  ETV
vector 256  Highway.node[3].appl  nodeId  ETV
vector 260  Highway.node[3].appl  acceleration  ETV
vector 261  Highway.node[3].appl  controllerAcceleration  ETV
vector 257  Highway.node[3].appl  speed  ETV
vector 258  Highway.node[3].appl  posx  ETV
vector 259  Highway.node[3].appl  posy  ETV
vector 277  Highway.node[4].appl  distance  ETV
vector 278  Highway.node[4].appl  relativeSpeed  ETV
vector 279  Highway.node[4].appl  nodeId  ETV
vector 283  Highway.node[4].appl  acceleration  ETV
vector 284  Highway.node[4].appl  controllerAcceleration  ETV
vector 280  Highway.node[4].appl  speed  ETV
vector 281  Highway.node[4].appl  posx  ETV
vector 282  Highway.node[4].appl  posy  ETV
vector 300  Highway.node[5].appl  distance  ETV
vector 301  Highway.node[5].appl  relativeSpeed  ETV
vector 302  Highway.node[5].appl  nodeId  ETV
vector 306  Highway.node[5].appl  acceleration  ETV
vector 307  Highway.node[5].appl  controllerAcceleration  ETV
vector 303  Highway.node[5].appl  speed  ETV
vector 304  Highway.node[5].appl  posx  ETV
vector 305  Highway.node[5].appl  posy  ETV
vector 323  Highway.node[6].appl  distance  ETV
vector 324  Highway.node[6].appl  relativeSpeed  ETV
vector 325  Highway.node[6].appl  nodeId  ETV
vector 329  Highway.node[6].appl  acceleration  ETV
vector 330  Highway.node[6].appl  controllerAcceleration  ETV
vector 326  Highway.node[6].appl  speed  ETV
vector 327  Highway.node[6].appl  posx  ETV
vector 328  Highway.node[6].appl  posy  ETV
vector 346  Highway.node[7].appl  distance  ETV
vector 347  Highway.node[7].appl  relativeSpeed  ETV
vector 348  Highway.node[7].appl  nodeId  ETV
vector 352  Highway.node[7].appl  acceleration  ETV
vector 353  Highway.node[7].appl  controllerAcceleration  ETV
vector 349  Highway.node[7].appl  speed  ETV
vector 350  Highway.node[7].appl  posx  ETV
vector 351  Highway.node[7].appl  posy  ETV
vector 268  Highway.node[3].prot  frontDelay  ETV
vector 266  Highway.node[3].prot  frontDelayId  ETV
vector 245  Highway.node[2].prot  frontDelay  ETV
vector 243  Highway.node[2].prot  frontDelayId  ETV
vector 360  Highway.node[7].prot  frontDelay  ETV
vector 358  Highway.node[7].prot  frontDelayId  ETV
vector 221  Highway.node[1].prot  leaderDelay  ETV
vector 219  Highway.node[1].prot  leaderDelayId  ETV
vector 222  Highway.node[1].prot  frontDelay  ETV
vector 220  Highway.node[1].prot  frontDelayId  ETV
vector 244  Highway.node[2].prot  leaderDelay  ETV
vector 242  Highway.node[2].prot  leaderDelayId  ETV
vector 267  Highway.node[3].prot  leaderDelay  ETV
vector 265  Highway.node[3].prot  leaderDelayId  ETV
vector 290  Highway.node[4].prot  leaderDelay  ETV
vector 288  Highway.node[4].prot  leaderDelayId  ETV
vector 313  Highway.node[5].prot  leaderDelay  ETV
vector 311  Highway.node[5].prot  leaderDelayId  ETV
vector 336  Highway.node[6].prot  leaderDelay  ETV
vector 334  Highway.node[6].prot  leaderDelayId  ETV
vector 359  Highway.node[7].prot  leaderDelay  ETV
vector 357  Highway.node[7].prot  leaderDelayId  ETV
vector 314  Highway.node[5].prot  frontDelay  ETV
vector 312  Highway.node[5].prot  frontDelayId  ETV
vector 291  Highway.node[4].prot  frontDelay  ETV
vector 289  Highway.node[4].prot  frontDelayId  ETV
vector 337  Highway.node[6].prot  frontDelay  ETV
vector 335  Highway.node[6].prot  frontDelayId  ETV
vector 193  Highway.node[0].prot  nodeId  ETV
vector 194  Highway.node[0].prot  busyTime  ETV
vector 195  Highway.node[0].prot  collisions  ETV
vector 216  Highway.node[1].prot  nodeId  ETV
vector 217  Highway.node[1].prot  busyTime  ETV
vector 218  Highway.node[1].prot  collisions  ETV
vector 239  Highway.node[2].prot  nodeId  ETV
vector 240  Highway.node[2].prot  busyTime  ETV
vector 241  Highway.node[2].prot  collisions  ETV
vector 262  Highway.node[3].prot  nodeId  ETV
vector 263  Highway.node[3].prot  busyTime  ETV
vector 264  Highway.node[3].prot  collisions  ETV
vector 285  Highway.node[4].prot  nodeId  ETV
vector 286  Highway.node[4].prot  busyTime  ETV
vector 287  Highway.node[4].prot  collisions  ETV
vector 308  Highway.node[5].prot  nodeId  ETV
vector 309  Highway.node[5].prot  busyTime  ETV
vector 310  Highway.node[5].prot  collisions  ETV
vector 331  Highway.node[6].prot  nodeId  ETV
vector 332  Highway.node[6].prot  busyTime  ETV
vector 333  Highway.node[6].prot  collisions  ETV
vector 354  Highway.node[7].prot  nodeId  ETV
vector 355  Highway.node[7].prot  busyTime  ETV
vector 356  Highway.node[7].prot  collisions  ETV
192	233	1.11	-0.00218518
192	790	1.21	-0.00213419
192	1346	1.31	-0.00205408
192	1903	1.41	-0.00195152
192	2460	1.51	-0.00183238
192	3016	1.61	-0.00170178
192	3572	1.71	-0.00156412
192	4129	1.81	-0.00142314
192	4685	1.91	-0.00128196
192	5252	2.01	-0.00114315
192	5808	2.11	-0.00100877
192	6364	2.21	-0.000880447
192	6920	2.31	-0.000759381
192	7476	2.41	-0.000646445
192	8032	2.51	-0.000542204
192	8588	2.61	-0.000446965
192	9144	2.71	-0.000360819
192	9700	2.81	-0.000283678
192	10256	2.91	-0.000215307
192	10820	3.01	-0.000155357
192	11376	3.11	-0.000103391
192	11932	3.21	-5.89069e-05
192	12488	3.31	-2.13575e-05
192	13044	3.41	9.82919e-06
192	13600	3.51	3.52368e-05
192	14156	3.61	5.54479e-05
192	14712	3.71	7.10335e-05
192	15268	3.81	8.25451e-05
192	15824	3.91	9.05081e-05
192	16388	4.01	9.54172e-05
192	16944	4.11	9.7733e-05
192	17500	4.21	9.78798e-05
192	18056	4.31	9.62447e-05
192	18612	4.41	9.31771e-05
192	19168	4.51	8.89894e-05
192	19724	4.61	8.39579e-05
192	20280	4.71	7.83245e-05
192	20836	4.81	7.22983e-05
192	21392	4.91	6.6058e-05
192	21957	5.01	5.9754e-05
192	22514	5.11	1.21855
192	23071	5.21	1.5
192	23628	5.31	1.5
192	24185	5.41	1.5
192	24742	5.51	1.5
192	25299	5.61	1.5
192	25856	5.71	1.5
192	26413	5.81	1.5
192	26970	5.91	1.5
192	27535	6.01	1.5
192	28092	6.11	1.5
192	28649	6.21	1.5
192	29206	6.31	1.5
192	29763	6.41	1.5
192	30320	6.51	1.5
192	30877	6.61	1.5
192	31434	6.71	1.5
192	31991	6.81	1.5
192	32548	6.91	1.5
192	33113	7.01	1.5
192	33670	7.11	1.5
192	34227	7.21	1.19534
192	34784	7.31	-0.110117
192	35341	7.41	-1.43481
192	35898	7.51	-1.5
192	36455	7.61	-1.5
192	37012	7.71	-1.5
192	37569	7.81	-1.5
192	38126	7.91	-1.5
192	38691	8.01	-1.5
192	39248	8.11	-1.5
192	39805	8.21	-1.5
192	40362	8.31	-1.5
192	40919	8.41	-1.5
192	41476	8.51	-1.5
192	42033	8.61	-1.5
192	42590	8.71	-1.5
192	43147	8.81	-1.5
192	43704	8.91	-1.5
192	44269	9.01	-1.5
192	44826	9.11	-1.5
192	45383	9.21	-1.5
192	45940	9.31	-1.5
192	46497	9.41	-1.5
192	47054	9.51	-1.5
192	47611	9.61	-1.5
192	48168	9.71	-1.5
192	48725	9.81	-1.5
192	49282	9.91	-1.4292
192	49847	10.01	-0.063558
192	50404	10.11	1.28627
192	50961	10.21	1.5
192	51518	10.31	1.5
192	52075	10.41	1.5
192	52632	10.51	1.5
192	53189	10.61	1.5
192	53746	10.71	1.5
192	54303	10.81	1.5
192	54860	10.91	1.5
192	55425	11.01	1.5
192	55982	11.11	1.5
192	56539	11.21	1.5
192	57096	11.31	1.5
192	57653	11.41	1.5
192	58210	11.51	1.5
192	58767	11.61	1.5
192	59324	11.71	1.5
192	59881	11.81	1.5
192	60438	11.91	1.5
192	61003	12.01	1.5
192	61560	12.11	1.5
192	62117	12.21	1.5
192	62674	12.31	0.533523
192	63231	12.41	-0.802356
192	63788	12.51	-1.5
192	64345	12.61	-1.5
192	64902	12.71	-1.5
192	65459	12.81	-1.5
192	66016	12.91	-1.5
192	66581	13.01	-1.5
192	67138	13.11	-1.5
192	67695	13.21	-1.5
192	68252	13.31	-1.5
192	68809	13.41	-1.5
192	69366	13.51	-1.5
192	69923	13.61	-1.5
192	70480	13.71	-1.5
192	71037	13.81	-1.5
192	71594	13.91	-1.5
192	72159	14.01	-1.5
192	72716	14.11	-1.5
192	73273	14.21	-1.5
192	73830	14.31	-1.5
192	74387	14.41	-1.5
192	74944	14.51	-1.5
192	75501	14.61	-1.5
192	76058	14.71	-1.5
192	76615	14.81	-1.5
192	77172	14.91	-0.936584
192	77737	15.01	0.423872
192	78294	15.11	1.5
192	78851	15.21	1.5
192	79408	15.31	1.5
192	79965	15.41	1.5
192	80522	15.51	1.5
192	81079	15.61	1.5
192	81636	15.71	1.5
192	82193	15.81	1.5
192	82750	15.91	1.5
192	83315	16.01	1.5
192	83872	16.11	1.5
192	84429	16.21	1.5
192	84986	16.31	1.5
192	85543	16.41	1.5
192	86100	16.51	1.5
192	86657	16.61	1.5
192	87214	16.71	1.5
192	87771	16.81	1.5
192	88328	16.91	1.5
192	88893	17.01	1.5
192	89450	17.11	1.5
192	90007	17.21	1.5
192	90564	17.31	0.912285
192	91121	17.41	-0.427667
192	91678	17.51	-1.5
192	92235	17.61	-1.5
192	92792	17.71	-1.5
192	93349	17.81	-1.5
192	93906	17.91	-1.5
192	94471	18.01	-1.5
192	95028	18.11	-1.5
192	95585	18.21	-1.5
192	96142	18.31	-1.5
192	96699	18.41	-1.5
192	97256	18.51	-1.5
192	97813	18.61	-1.5
192	98370	18.71	-1.5
192	98927	18.81	-1.5
192	99484	18.91	-1.5
192	100049	19.01	-1.5
192	100606	19.11	-1.5
192	101163	19.21	-1.5
192	101720	19.31	-1.5
192	102277	19.41	-1.5
192	102834	19.51	-1.5
192	103391	19.61	-1.5
192	103948	19.71	-1.5
192	104505	19.81	-1.5
192	105062	19.91	-0.633357
192	105627	20.01	0.723924
192	106184	20.11	1.5
192	106741	20.21	1.5
192	107298	20.31	1.5
192	107855	20.41	1.5
192	108412	20.51	1.5
192	108969	20.61	1.5
192	109526	20.71	1.5
192	110083	20.81	1.5
192	110640	20.91	1.5
192	111205	21.01	1.5
192	111762	21.11	1.5
192	112319	21.21	1.5
192	112876	21.31	1.5
192	113433	21.41	1.5
192	113990	21.51	1.5
192	114547	21.61	1.5
192	115104	21.71	1.5
192	115661	21.81	1.5
192	116218	21.91	1.5
192	116783	22.01	1.5
192	117340	22.11	1.5
192	117897	22.21	1.5
192	118454	22.31	1.1557
192	119011	22.41	-0.186833
192	119568	22.51	-1.5
192	120125	22.61	-1.5
192	120682	22.71	-1.5
192	121239	22.81	-1.5
192	121796	22.91	-1.5
192	122361	23.01	-1.5
192	122918	23.11	-1.5
192	123475	23.21	-1.5
192	124032	23.31	-1.5
192	124589	23.41	-1.5
192	125146	23.51	-1.5
192	125703	23.61	-1.5
192	126260	23.71	-1.5
192	126817	23.81	-1.5
192	127374	23.91	-1.5
192	127939	24.01	-1.5
192	128496	24.11	-1.5
192	129053	24.21	-1.5
192	129610	24.31	-1.5
192	130167	24.41	-1.5
192	130724	24.51	-1.5
192	131281	24.61	-1.5
192	131838	24.71	-1.5
192	132395	24.81	-1.5
192	132952	24.91	-0.43831
192	133517	25.01	0.916929
192	134074	25.11	1.5
192	134631	25.21	1.5
192	135188	25.31	1.5
192	135745	25.41	1.5
192	136302	25.51	1.5
192	136859	25.61	1.5
192	137416	25.71	1.5
192	137973	25.81	1.5
192	138530	25.91	1.5
192	139095	26.01	1.5
192	139652	26.11	1.5
192	140209	26.21	1.5
192	140766	26.31	1.5
192	141323	26.41	1.5
192	141880	26.51	1.5
192	142437	26.61	1.5
192	142994	26.71	1.5
192	143551	26.81	1.5
192	144108	26.91	1.5
192	144673	27.01	1.5
192	145230	27.11	1.5
192	145787	27.21	1.5
192	146344	27.31	1.31228
192	146901	27.41	-0.0319178
192	147458	27.51	-1.37804
192	148015	27.61	-1.5
192	148572	27.71	-1.5
192	149129	27.81	-1.5
192	149686	27.91	-1.5
192	150251	28.01	-1.5
192	150808	28.11	-1.5
192	151365	28.21	-1.5
192	151922	28.31	-1.5
192	152479	28.41	-1.5
192	153036	28.51	-1.5
192	153593	28.61	-1.5
192	154150	28.71	-1.5
192	154707	28.81	-1.5
192	155264	28.91	-1.5
192	155829	29.01	-1.5
192	156386	29.11	-1.5
192	156943	29.21	-1.5
192	157500	29.31	-1.5
192	158057	29.41	-1.5
192	158614	29.51	-1.5
192	159171	29.61	-1.5
192	159728	29.71	-1.5
192	160285	29.81	-1.5
192	160842	29.91	-0.320565
192	161407	30.01	1.03343
192	161964	30.11	1.5
192	162521	30.21	1.5
192	163078	30.31	1.5
192	163635	30.41	1.5
192	164192	30.51	1.5
192	164749	30.61	1.5
192	165306	30.71	1.5
192	165863	30.81	1.5
192	166420	30.91	1.5
192	166985	31.01	1.5
192	167542	31.11	1.5
192	168099	31.21	1.5
192	168656	31.31	1.5
192	169213	31.41	1.5
192	169770	31.51	1.5
192	170327	31.61	1.5
192	170884	31.71	1.5
192	171441	31.81	1.5
192	171998	31.91	1.5
192	172563	32.01	1.5
192	173120	32.11	1.5
192	173677	32.21	1.5
192	174234	32.31	1.40672
192	174791	32.41	0.0615183
192	175348	32.51	-1.28711
192	175905	32.61	-1.5
192	176462	32.71	-1.5
192	177019	32.81	-1.5
192	177576	32.91	-1.5
192	178141	33.01	-1.5
192	178698	33.11	-1.5
192	179255	33.21	-1.5
192	179812	33.31	-1.5
192	180369	33.41	-1.5
192	180926	33.51	-1.5
192	181483	33.61	-1.5
192	182040	33.71	-1.5
192	182597	33.81	-1.5
192	183154	33.91	-1.5
192	183719	34.01	-1.5
192	184276	34.11	-1.5
192	184833	34.21	-1.5
192	185390	34.31	-1.5
192	185947	34.41	-1.5
192	186504	34.51	-1.5
192	187061	34.61	-1.5
192	187618	34.71	-1.5
192	188175	34.81	-1.5
192	188732	34.91	-0.253761
192	189297	35.01	1.09942
192	189854	35.11	1.5
192	190411	35.21	1.5
192	190968	35.31	1.5
192	191525	35.41	1.5
192	192082	35.51	1.5
192	192639	35.61	1.5
192	193196	35.71	1.5
192	193753	35.81	1.5
192	194310	35.91	1.5
192	194875	36.01	1.5
192	195432	36.11	1.5
192	195989	36.21	1.5
192	196546	36.31	1.5
192	197103	36.41	1.5
192	197660	36.51	1.5
192	198217	36.61	1.5
192	198774	36.71	1.5
192	199331	36.81	1.5
192	199888	36.91	1.5
192	200453	37.01	1.5
192	201010	37.11	1.5
192	201567	37.21	1.5
192	202124	37.31	1.45977
192	202681	37.41	0.113999
192	203238	37.51	-1.23603
192	203795	37.61	-1.5
192	204352	37.71	-1.5
192	204909	37.81	-1.5
192	205466	37.91	-1.5
192	206031	38.01	-1.5
192	206588	38.11	-1.5
192	207145	38.21	-1.5
192	207702	38.31	-1.5
192	208259	38.41	-1.5
192	208816	38.51	-1.5
192	209373	38.61	-1.5
192	209930	38.71	-1.5
192	210487	38.81	-1.5
192	211044	38.91	-1.5
192	211609	39.01	-1.5
192	212166	39.11	-1.5
192	212723	39.21	-1.5
192	213280	39.31	-1.5
192	213837	39.41	-1.5
192	214394	39.51	-1.5
192	214951	39.61	-1.5
192	215508	39.71	-1.5
192	216065	39.81	-1.5
192	216622	39.91	-0.216308
192	217187	40.01	1.13622
192	217744	40.11	1.5
192	218301	40.21	1.5
192	218858	40.31	1.5
192	219415	40.41	1.5
192	219972	40.51	1.5
192	220529	40.61	1.5
192	221086	40.71	1.5
192	221643	40.81	1.5
192	222200	40.91	1.5
192	222765	41.01	1.5
192	223322	41.11	1.5
192	223879	41.21	1.5
192	224436	41.31	1.5
192	224993	41.41	1.5
192	225550	41.51	1.5
192	226107	41.61	1.5
192	226664	41.71	1.5
192	227221	41.81	1.5
192	227778	41.91	1.5
192	228343	42.01	1.5
192	228900	42.11	1.5
192	229457	42.21	1.5
192	230014	42.31	1.48842
192	230571	42.41	0.142349
192	231128	42.51	-1.20844
192	231685	42.61	-1.5
192	232242	42.71	-1.5
192	232799	42.81	-1.5
192	233356	42.91	-1.5
192	233921	43.01	-1.5
192	234478	43.11	-1.5
192	235035	43.21	-1.5
192	235592	43.31	-1.5
192	236149	43.41	-1.5
192	236706	43.51	-1.5
192	237263	43.61	-1.5
192	237820	43.71	-1.5
192	238377	43.81	-1.5
192	238934	43.91	-1.5
192	239499	44.01	-1.5
192	240056	44.11	-1.5
192	240613	44.21	-1.5
192	241170	44.31	-1.5
192	241727	44.41	-1.5
192	242284	44.51	-1.5
192	242841	44.61	-1.5
192	243398	44.71	-1.5
192	243955	44.81	-1.5
192	244512	44.91	-0.196125
192	245077	45.01	1.15599
192	245634	45.11	1.5
192	246191	45.21	1.5
192	246748	45.31	1.5
192	247305	45.41	1.5
192	247862	45.51	1.5
192	248419	45.61	1.5
192	248976	45.71	1.5
192	249533	45.81	1.5
192	250090	45.91	1.5
192	250655	46.01	1.5
192	251212	46.11	1.5
192	251769	46.21	1.5
192	252326	46.31	1.5
192	252883	46.41	1.5
192	253440	46.51	1.5
192	253997	46.61	1.5
192	254554	46.71	1.5
192	255111	46.81	1.5
192	255668	46.91	1.5
192	256233	47.01	1.5
192	256790	47.11	1.5
192	257347	47.21	1.5
192	257904	47.31	1.5
192	258461	47.41	0.1573
192	259018	47.51	-1.19389
192	259575	47.61	-1.5
192	260132	47.71	-1.5
192	260689	47.81	-1.5
192	261246	47.91	-1.5
192	261811	48.01	-1.5
192	262368	48.11	-1.5
192	262925	48.21	-1.5
192	263482	48.31	-1.5
192	264039	48.41	-1.5
192	264596	48.51	-1.5
192	265153	48.61	-1.5
192	265710	48.71	-1.5
192	266267	48.81	-1.5
192	266824	48.91	-1.5
192	267389	49.01	-1.5
192	267946	49.11	-1.5
192	268503	49.21	-1.5
192	269060	49.31	-1.5
192	269617	49.41	-1.5
192	270174	49.51	-1.5
192	270731	49.61	-1.5
192	271288	49.71	-1.5
192	271845	49.81	-1.5
192	272402	49.91	-0.185471
192	272967	50.01	1.1664
192	273524	50.11	1.5
192	274081	50.21	1.5
192	274638	50.31	1.5
192	275195	50.41	1.5
192	275752	50.51	1.5
192	276309	50.61	1.5
192	276866	50.71	1.5
192	277423	50.81	1.5
192	277980	50.91	1.5
192	278545	51.01	1.5
192	279102	51.11	1.5
192	279659	51.21	1.5
192	280216	51.31	1.5
192	280773	51.41	1.5
192	281330	51.51	1.5
192	281887	51.61	1.5
192	282444	51.71	1.5
192	283001	51.81	1.5
192	283558	51.91	1.5
192	284123	52.01	1.5
192	284680	52.11	1.5
192	285237	52.21	1.5
192	285794	52.31	1.5
192	286351	52.41	0.165103
192	286908	52.51	-1.18628
192	287465	52.61	-1.5
192	288022	52.71	-1.5
192	288579	52.81	-1.5
192	289136	52.91	-1.5
192	289701	53.01	-1.5
192	290258	53.11	-1.5
192	290815	53.21	-1.5
192	291372	53.31	-1.5
192	291929	53.41	-1.5
192	292486	53.51	-1.5
192	293043	53.61	-1.5
192	293600	53.71	-1.5
192	294157	53.81	-1.5
192	294714	53.91	-1.5
192	295279	54.01	-1.5
192	295836	54.11	-1.5
192	296393	54.21	-1.5
192	296950	54.31	-1.5
192	297507	54.41	-1.5
192	298064	54.51	-1.5
192	298621	54.61	-1.5
192	299178	54.71	-1.5
192	299735	54.81	-1.5
192	300292	54.91	-0.179868
192	300857	55.01	1.17187
192	301414	55.11	1.5
192	301971	55.21	1.5
192	302528	55.31	1.5
192	303085	55.41	1.5
192	303642	55.51	1.5
192	304199	55.61	1.5
192	304756	55.71	1.5
192	305313	55.81	1.5
192	305870	55.91	1.5
192	306435	56.01	1.5
192	306992	56.11	1.5
192	307549	56.21	1.5
192	308106	56.31	1.5
192	308663	56.41	1.5
192	309220	56.51	1.5
192	309777	56.61	1.5
192	310334	56.71	1.5
192	310891	56.81	1.5
192	311448	56.91	1.5
192	312013	57.01	1.5
192	312570	57.11	1.5
192	313127	57.21	1.5
192	313684	57.31	1.5
192	314241	57.41	0.169182
192	314798	57.51	-1.18231
192	315355	57.61	-1.5
192	315912	57.71	-1.5
192	316469	57.81	-1.5
192	317026	57.91	-1.5
192	317591	58.01	-1.5
192	318148	58.11	-1.5
192	318705	58.21	-1.5
192	319262	58.31	-1.5
192	319819	58.41	-1.5
192	320376	58.51	-1.5
192	320933	58.61	-1.5
192	321490	58.71	-1.5
192	322047	58.81	-1.5
192	322604	58.91	-1.5
192	323169	59.01	-1.5
192	323726	59.11	-1.5
192	324283	59.21	-1.5
192	324840	59.31	-1.5
192	325397	59.41	-1.5
192	325954	59.51	-1.5
192	326511	59.61	-1.5
192	327068	59.71	-1.5
192	327625	59.81	-1.5
192	328182	59.91	-0.176935
191	233	1.11	-0.000358191
191	790	1.21	-0.000681704
191	1346	1.31	-0.00093487
191	1903	1.41	-0.00112579
191	2460	1.51	-0.00126221
191	3016	1.61	-0.00135149
191	3572	1.71	-0.00140049
191	4129	1.81	-0.00141557
191	4685	1.91	-0.00140255
191	5252	2.01	-0.00136671
191	5808	2.11	-0.0013128
191	6364	2.21	-0.00124502
191	6920	2.31	-0.0011671
191	7476	2.41	-0.00108223
191	8032	2.51	-0.000993208
191	8588	2.61	-0.000902362
191	9144	2.71	-0.000811651
191	9700	2.81	-0.000722679
191	10256	2.91	-0.000636729
191	10820	3.01	-0.0005548
191	11376	3.11	-0.000477639
191	11932	3.21	-0.000405773
191	12488	3.31	-0.00033954
191	13044	3.41	-0.000279116
191	13600	3.51	-0.000224541
191	14156	3.61	-0.000175743
191	14712	3.71	-0.00013256
191	15268	3.81	-9.47571e-05
191	15824	3.91	-6.2046e-05
191	16388	4.01	-3.40986e-05
191	16944	4.11	-1.05605e-05
191	17500	4.21	8.93844e-06
191	18056	4.31	2.4774e-05
191	18612	4.41	3.73203e-05
191	19168	4.51	4.69433e-05
191	19724	4.61	5.39956e-05
191	20280	4.71	5.88124e-05
191	20836	4.81	6.1709e-05
191	21392	4.91	6.29785e-05
191	21957	5.01	6.28903e-05
191	22514	5.11	0.0239538
191	23071	5.21	0.243384
191	23628	5.31	0.469137
191	24185	5.41	0.654333
191	24742	5.51	0.806259
191	25299	5.61	0.930891
191	25856	5.71	1.03313
191	26413	5.81	1.11701
191	26970	5.91	1.18581
191	27535	6.01	1.24226
191	28092	6.11	1.28856
191	28649	6.21	1.32655
191	29206	6.31	1.35771
191	29763	6.41	1.38327
191	30320	6.51	1.40424
191	30877	6.61	1.42144
191	31434	6.71	1.43556
191	31991	6.81	1.44713
191	32548	6.91	1.45663
191	33113	7.01	1.46442
191	33670	7.11	1.47081
191	34227	7.21	1.47008
191	34784	7.31	1.38319
191	35341	7.41	1.07822
191	35898	7.51	0.618121
191	36455	7.61	0.237597
191	37012	7.71	-0.0745656
191	37569	7.81	-0.330647
191	38126	7.91	-0.540724
191	38691	8.01	-0.713059
191	39248	8.11	-0.854434
191	39805	8.21	-0.970411
191	40362	8.31	-1.06555
191	40919	8.41	-1.1436
191	41476	8.51	-1.20763
191	42033	8.61	-1.26015
191	42590	8.71	-1.30324
191	43147	8.81	-1.33859
191	43704	8.91	-1.36759
191	44269	9.01	-1.39138
191	44826	9.11	-1.41089
191	45383	9.21	-1.4269
191	45940	9.31	-1.44003
191	46497	9.41	-1.45081
191	47054	9.51	-1.45964
191	47611	9.61	-1.46689
191	48168	9.71	-1.47284
191	48725	9.81	-1.47772
191	49282	9.91	-1.48033
191	49847	10.01	-1.43225
191	50404	10.11	-1.14873
191	50961	10.21	-0.698691
191	51518	10.31	-0.303692
191	52075	10.41	0.0203439
191	52632	10.51	0.286167
191	53189	10.61	0.504234
191	53746	10.71	0.683125
191	54303	10.81	0.829878
191	54860	10.91	0.950267
191	55425	11.01	1.04903
191	55982	11.11	1.13005
191	56539	11.21	1.19651
191	57096	11.31	1.25103
191	57653	11.41	1.29576
191	58210	11.51	1.33245
191	58767	11.61	1.36255
191	59324	11.71	1.38724
191	59881	11.81	1.4075
191	60438	11.91	1.42412
191	61003	12.01	1.43775
191	61560	12.11	1.44893
191	62117	12.21	1.45811
191	62674	12.31	1.44668
191	63231	12.41	1.24496
191	63788	12.51	0.85413
191	64345	12.61	0.431206
191	64902	12.71	0.0842617
191	65459	12.81	-0.200354
191	66016	12.91	-0.433837
191	66581	13.01	-0.625375
191	67138	13.11	-0.782503
191	67695	13.21	-0.911403
191	68252	13.31	-1.01715
191	68809	13.41	-1.10389
191	69366	13.51	-1.17505
191	69923	13.61	-1.23343
191	70480	13.71	-1.28132
191	71037	13.81	-1.32061
191	71594	13.91	-1.35283
191	72159	14.01	-1.37927
191	72716	14.11	-1.40096
191	73273	14.21	-1.41875
191	73830	14.31	-1.43335
191	74387	14.41	-1.44532
191	74944	14.51	-1.45515
191	75501	14.61	-1.4632
191	76058	14.71	-1.46981
191	76615	14.81	-1.47524
191	77172	14.91	-1.46864
191	77737	15.01	-1.33456
191	78294	15.11	-0.987349
191	78851	15.21	-0.540493
191	79408	15.31	-0.173915
191	79965	15.41	0.126807
191	80522	15.51	0.373503
191	81079	15.61	0.57588
191	81636	15.71	0.7419
191	82193	15.81	0.878094
191	82750	15.91	0.98982
191	83315	16.01	1.08148
191	83872	16.11	1.15666
191	84429	16.21	1.21834
191	84986	16.31	1.26894
191	85543	16.41	1.31045
191	86100	16.51	1.34451
191	86657	16.61	1.37244
191	87214	16.71	1.39536
191	87771	16.81	1.41416
191	88328	16.91	1.42958
191	88893	17.01	1.44223
191	89450	17.11	1.45261
191	90007	17.21	1.46112
191	90564	17.31	1.45658
191	91121	17.41	1.32081
191	91678	17.51	0.975571
191	92235	17.61	0.530831
191	92792	17.71	0.165988
191	93349	17.81	-0.133309
191	93906	17.91	-0.378838
191	94471	18.01	-0.580256
191	95028	18.11	-0.74549
191	95585	18.21	-0.881039
191	96142	18.31	-0.992236
191	96699	18.41	-1.08346
191	97256	18.51	-1.15829
191	97813	18.61	-1.21968
191	98370	18.71	-1.27004
191	98927	18.81	-1.31135
191	99484	18.91	-1.34524
191	100049	19.01	-1.37305
191	100606	19.11	-1.39585
191	101163	19.21	-1.41456
191	101720	19.31	-1.42991
191	102277	19.41	-1.4425
191	102834	19.51	-1.45283
191	103391	19.61	-1.46131
191	103948	19.71	-1.46826
191	104505	19.81	-1.47396
191	105062	19.91	-1.46165
191	105627	20.01	-1.27459
191	106184	20.11	-0.890726
191	106741	20.21	-0.461228
191	107298	20.31	-0.10889
191	107855	20.41	0.18015
191	108412	20.51	0.417263
191	108969	20.61	0.611778
191	109526	20.71	0.771349
191	110083	20.81	0.902252
191	110640	20.91	1.00964
191	111205	21.01	1.09773
191	111762	21.11	1.17
191	112319	21.21	1.22929
191	112876	21.31	1.27792
191	113433	21.41	1.31782
191	113990	21.51	1.35055
191	114547	21.61	1.3774
191	115104	21.71	1.39942
191	115661	21.81	1.41749
191	116218	21.91	1.43231
191	116783	22.01	1.44447
191	117340	22.11	1.45445
191	117897	22.21	1.46263
191	118454	22.31	1.46259
191	119011	22.41	1.36927
191	119568	22.51	1.05339
191	120125	22.61	0.594671
191	120682	22.71	0.21836
191	121239	22.81	-0.0903463
191	121796	22.91	-0.343593
191	122361	23.01	-0.551343
191	122918	23.11	-0.721771
191	123475	23.21	-0.861581
191	124032	23.31	-0.976274
191	124589	23.41	-1.07036
191	125146	23.51	-1.14755
191	125703	23.61	-1.21087
191	126260	23.71	-1.26281
191	126817	23.81	-1.30542
191	127374	23.91	-1.34038
191	127939	24.01	-1.36905
191	128496	24.11	-1.39258
191	129053	24.21	-1.41188
191	129610	24.31	-1.42771
191	130167	24.41	-1.4407
191	130724	24.51	-1.45135
191	131281	24.61	-1.46009
191	131838	24.71	-1.46726
191	132395	24.81	-1.47314
191	132952	24.91	-1.45715
191	133517	25.01	-1.23602
191	134074	25.11	-0.828577
191	134631	25.21	-0.410244
191	135188	25.31	-0.0670653
191	135745	25.41	0.214461
191	136302	25.51	0.44541
191	136859	25.61	0.634869
191	137416	25.71	0.790291
191	137973	25.81	0.917792
191	138530	25.91	1.02239
191	139095	26.01	1.10819
191	139652	26.11	1.17858
191	140209	26.21	1.23632
191	140766	26.31	1.28369
191	141323	26.41	1.32255
191	141880	26.51	1.35443
191	142437	26.61	1.38058
191	142994	26.71	1.40204
191	143551	26.81	1.41964
191	144108	26.91	1.43407
191	144673	27.01	1.44592
191	145230	27.11	1.45563
191	145787	27.21	1.4636
191	146344	27.31	1.46646
191	146901	27.41	1.40044
191	147458	27.51	1.10584
191	148015	27.61	0.649195
191	148572	27.71	0.263088
191	149129	27.81	-0.0536535
191	149686	27.91	-0.313492
191	150251	28.01	-0.52665
191	150808	28.11	-0.701514
191	151365	28.21	-0.844964
191	151922	28.31	-0.962642
191	152479	28.41	-1.05918
191	153036	28.51	-1.13837
191	153593	28.61	-1.20334
191	154150	28.71	-1.25664
191	154707	28.81	-1.30036
191	155264	28.91	-1.33622
191	155829	29.01	-1.36565
191	156386	29.11	-1.38978
191	156943	29.21	-1.40958
191	157500	29.31	-1.42583
191	158057	29.41	-1.43915
191	158614	29.51	-1.45008
191	159171	29.61	-1.45905
191	159728	29.71	-1.46641
191	160285	29.81	-1.47244
191	160842	29.91	-1.45427
191	161407	30.01	-1.2126
191	161964	30.11	-0.79095
191	162521	30.21	-0.379377
191	163078	30.31	-0.0417438
191	163635	30.41	0.235233
191	164192	30.51	0.462451
191	164749	30.61	0.648848
191	165306	30.71	0.801759
191	165863	30.81	0.927199
191	166420	30.91	1.0301
191	166985	31.01	1.11452
191	167542	31.11	1.18377
191	168099	31.21	1.24058
191	168656	31.31	1.28719
191	169213	31.41	1.32542
191	169770	31.51	1.35678
191	170327	31.61	1.38251
191	170884	31.71	1.40362
191	171441	31.81	1.42093
191	171998	31.91	1.43514
191	172563	32.01	1.44679
191	173120	32.11	1.45635
191	173677	32.21	1.46419
191	174234	32.31	1.4688
191	174791	32.41	1.41925
191	175348	32.51	1.13782
191	175905	32.61	0.689694
191	176462	32.71	0.296311
191	177019	32.81	-0.026399
191	177576	32.91	-0.291134
191	178141	33.01	-0.508309
191	178698	33.11	-0.686468
191	179255	33.21	-0.83262
191	179812	33.31	-0.952516
191	180369	33.41	-1.05087
191	180926	33.51	-1.13156
191	181483	33.61	-1.19775
191	182040	33.71	-1.25205
191	182597	33.81	-1.29659
191	183154	33.91	-1.33314
191	183719	34.01	-1.36311
191	184276	34.11	-1.38771
191	184833	34.21	-1.40788
191	185390	34.31	-1.42443
191	185947	34.41	-1.43801
191	186504	34.51	-1.44914
191	187061	34.61	-1.45828
191	187618	34.71	-1.46577
191	188175	34.81	-1.47192
191	188732	34.91	-1.45153
191	189297	35.01	-1.19842
191	189854	35.11	-0.768895
191	190411	35.21	-0.361284
191	190968	35.31	-0.0269015
191	191525	35.41	0.247409
191	192082	35.51	0.472439
191	192639	35.61	0.657042
191	193196	35.71	0.808481
191	193753	35.81	0.932714
191	194310	35.91	1.03463
191	194875	36.01	1.11823
191	195432	36.11	1.18682
191	195989	36.21	1.24308
191	196546	36.31	1.28924
191	197103	36.41	1.3271
191	197660	36.51	1.35816
191	198217	36.61	1.38364
191	198774	36.71	1.40455
191	199331	36.81	1.4217
191	199888	36.91	1.43576
191	200453	37.01	1.4473
191	201010	37.11	1.45677
191	201567	37.21	1.46454
191	202124	37.31	1.47012
191	202681	37.41	1.42982
191	203238	37.51	1.15579
191	203795	37.61	0.712447
191	204352	37.71	0.314977
191	204909	37.81	-0.0110866
191	205466	37.91	-0.278572
191	206031	38.01	-0.498004
191	206588	38.11	-0.678014
191	207145	38.21	-0.825685
191	207702	38.31	-0.946827
191	208259	38.41	-1.04621
191	208816	38.51	-1.12773
191	209373	38.61	-1.19461
191	209930	38.71	-1.24947
191	210487	38.81	-1.29448
191	211044	38.91	-1.3314
191	211609	39.01	-1.36169
191	212166	39.11	-1.38654
191	212723	39.21	-1.40692
191	213280	39.31	-1.42364
191	213837	39.41	-1.43736
191	214394	39.51	-1.44861
191	214951	39.61	-1.45785
191	215508	39.71	-1.46542
191	216065	39.81	-1.47163
191	216622	39.91	-1.44779
191	217187	40.01	-1.18868
191	217744	40.11	-0.755104
191	218301	40.21	-0.349971
191	218858	40.31	-0.0176205
191	219415	40.41	0.255023
191	219972	40.51	0.478685
191	220529	40.61	0.662166
191	221086	40.71	0.812684
191	221643	40.81	0.936162
191	222200	40.91	1.03746
191	222765	41.01	1.12055
191	223322	41.11	1.18872
191	223879	41.21	1.24464
191	224436	41.31	1.29052
191	224993	41.41	1.32815
191	225550	41.51	1.35902
191	226107	41.61	1.38435
191	226664	41.71	1.40513
191	227221	41.81	1.42217
191	227778	41.91	1.43615
191	228343	42.01	1.44762
191	228900	42.11	1.45703
191	229457	42.21	1.46475
191	230014	42.31	1.47086
191	230571	42.41	1.43555
191	231128	42.51	1.16551
191	231685	42.61	0.724751
191	232242	42.71	0.325071
191	232799	42.81	-0.00280632
191	233356	42.91	-0.27178
191	233921	43.01	-0.492432
191	234478	43.11	-0.673443
191	235035	43.21	-0.821935
191	235592	43.31	-0.943751
191	236149	43.41	-1.04368
191	236706	43.51	-1.12566
191	237263	43.61	-1.19291
191	237820	43.71	-1.24808
191	238377	43.81	-1.29334
191	238934	43.91	-1.33047
191	239499	44.01	-1.36092
191	240056	44.11	-1.38591
191	240613	44.21	-1.4064
191	241170	44.31	-1.42322
191	241727	44.41	-1.43701
191	242284	44.51	-1.44833
191	242841	44.61	-1.45761
191	243398	44.71	-1.46523
191	243955	44.81	-1.47147
191	244512	44.91	-1.44508
191	245077	45.01	-1.18287
191	245634	45.11	-0.747231
191	246191	45.21	-0.343512
191	246748	45.31	-0.0123218
191	247305	45.41	0.259369
191	247862	45.51	0.482251
191	248419	45.61	0.665091
191	248976	45.71	0.815084
191	249533	45.81	0.93813
191	250090	45.91	1.03907
191	250655	46.01	1.12188
191	251212	46.11	1.18981
191	251769	46.21	1.24553
191	252326	46.31	1.29125
191	252883	46.41	1.32875
191	253440	46.51	1.35952
191	253997	46.61	1.38476
191	254554	46.71	1.40546
191	255111	46.81	1.42244
191	255668	46.91	1.43638
191	256233	47.01	1.44781
191	256790	47.11	1.45718
191	257347	47.21	1.46488
191	257904	47.31	1.47119
191	258461	47.41	1.43852
191	259018	47.51	1.1706
191	259575	47.61	0.731207
191	260132	47.71	0.330367
191	260689	47.81	0.00153846
191	261246	47.91	-0.268215
191	261811	48.01	-0.489508
191	262368	48.11	-0.671044
191	262925	48.21	-0.819968
191	263482	48.31	-0.942137
191	264039	48.41	-1.04236
191	264596	48.51	-1.12457
191	265153	48.61	-1.19202
191	265710	48.71	-1.24735
191	266267	48.81	-1.29274
191	266824	48.91	-1.32997
191	267389	49.01	-1.36052
191	267946	49.11	-1.38558
191	268503	49.21	-1.40613
191	269060	49.31	-1.423
191	269617	49.41	-1.43683
191	270174	49.51	-1.44818
191	270731	49.61	-1.45749
191	271288	49.71	-1.46513
191	271845	49.81	-1.47139
191	272402	49.91	-1.44345
191	272967	50.01	-1.17964
191	273524	50.11	-0.742941
191	274081	50.21	-0.339993
191	274638	50.31	-0.00943511
191	275195	50.41	0.261737
191	275752	50.51	0.484193
191	276309	50.61	0.666685
191	276866	50.71	0.816391
191	277423	50.81	0.939203
191	277980	50.91	1.03995
191	278545	51.01	1.1226
191	279102	51.11	1.1904
191	279659	51.21	1.24602
191	280216	51.31	1.29165
191	280773	51.41	1.32908
191	281330	51.51	1.35979
191	281887	51.61	1.38498
191	282444	51.71	1.40564
191	283001	51.81	1.42259
191	283558	51.91	1.4365
191	284123	52.01	1.44791
191	284680	52.11	1.45727
191	285237	52.21	1.46494
191	285794	52.31	1.47124
191	286351	52.41	1.43997
191	286908	52.51	1.17317
191	287465	52.61	0.734515
191	288022	52.71	0.33308
191	288579	52.81	0.0037643
191	289136	52.91	-0.26639
191	289701	53.01	-0.48801
191	290258	53.11	-0.669816
191	290815	53.21	-0.81896
191	291372	53.31	-0.94131
191	291929	53.41	-1.04168
191	292486	53.51	-1.12402
191	293043	53.61	-1.19156
191	293600	53.71	-1.24697
191	294157	53.81	-1.29243
191	294714	53.91	-1.32972
191	295279	54.01	-1.36031
191	295836	54.11	-1.38541
191	296393	54.21	-1.40599
191	296950	54.31	-1.42288
191	297507	54.41	-1.43674
191	298064	54.51	-1.4481
191	298621	54.61	-1.45743
191	299178	54.71	-1.46507
191	299735	54.81	-1.47135
191	300292	54.91	-1.44254
191	300857	55.01	-1.17789
191	301414	55.11	-0.740652
191	301971	55.21	-0.338115
191	302528	55.31	-0.00789462
191	303085	55.41	0.263001
191	303642	55.51	0.48523
191	304199	55.61	0.667535
191	304756	55.71	0.817089
191	305313	55.81	0.939775
191	305870	55.91	1.04042
191	306435	56.01	1.12298
191	306992	56.11	1.19072
191	307549	56.21	1.24628
191	308106	56.31	1.29186
191	308663	56.41	1.32925
191	309220	56.51	1.35993
191	309777	56.61	1.38509
191	310334	56.71	1.40574
191	310891	56.81	1.42267
191	311448	56.91	1.43656
191	312013	57.01	1.44796
191	312570	57.11	1.45731
191	313127	57.21	1.46498
191	313684	57.31	1.47127
191	314241	57.41	1.44072
191	314798	57.51	1.17451
191	315355	57.61	0.736235
191	315912	57.71	0.334492
191	316469	57.81	0.00492235
191	317026	57.91	-0.26544
191	317591	58.01	-0.48723
191	318148	58.11	-0.669176
191	318705	58.21	-0.818435
191	319262	58.31	-0.940879
191	319819	58.41	-1.04133
191	320376	58.51	-1.12373
191	320933	58.61	-1.19133
191	321490	58.71	-1.24678
191	322047	58.81	-1.29227
191	322604	58.91	-1.32959
191	323169	59.01	-1.3602
191	323726	59.11	-1.38532
191	324283	59.21	-1.40592
191	324840	59.31	-1.42282
191	325397	59.41	-1.43669
191	325954	59.51	-1.44806
191	326511	59.61	-1.45739
191	327068	59.71	-1.46505
191	327625	59.81	-1.47133
191	328182	59.91	-1.44204
190	233	1.11	242.45
190	790	1.21	242.45
190	1346	1.31	242.45
190	1903	1.41	242.45
190	2460	1.51	242.45
190	3016	1.61	242.45
190	3572	1.71	242.45
190	4129	1.81	242.45
190	4685	1.91	242.45
190	5252	2.01	242.45
190	5808	2.11	242.45
190	6364	2.21	242.45
190	6920	2.31	242.45
190	7476	2.41	242.45
190	8032	2.51	242.45
190	8588	2.61	242.45
190	9144	2.71	242.45
190	9700	2.81	242.45
190	10256	2.91	242.45
190	10820	3.01	242.45
190	11376	3.11	242.45
190	11932	3.21	242.45
190	12488	3.31	242.45
190	13044	3.41	242.45
190	13600	3.51	242.45
190	14156	3.61	242.45
190	14712	3.71	242.45
190	15268	3.81	242.45
190	15824	3.91	242.45
190	16388	4.01	242.45
190	16944	4.11	242.45
190	17500	4.21	242.45
190	18056	4.31	242.45
190	18612	4.41	242.45
190	19168	4.51	242.45
190	19724	4.61	242.45
190	20280	4.71	242.45
190	20836	4.81	242.45
190	21392	4.91	242.45
190	21957	5.01	242.45
190	22514	5.11	242.45
190	23071	5.21	242.45
190	23628	5.31	242.45
190	24185	5.41	242.45
190	24742	5.51	242.45
190	25299	5.61	242.45
190	25856	5.71	242.45
190	26413	5.81	242.45
190	26970	5.91	242.45
190	27535	6.01	242.45
190	28092	6.11	242.45
190	28649	6.21	242.45
190	29206	6.31	242.45
190	29763	6.41	242.45
190	30320	6.51	242.45
190	30877	6.61	242.45
190	31434	6.71	242.45
190	31991	6.81	242.45
190	32548	6.91	242.45
190	33113	7.01	242.45
190	33670	7.11	242.45
190	34227	7.21	242.45
190	34784	7.31	242.45
190	35341	7.41	242.45
190	35898	7.51	242.45
190	36455	7.61	242.45
190	37012	7.71	242.45
190	37569	7.81	242.45
190	38126	7.91	242.45
190	38691	8.01	242.45
190	39248	8.11	242.45
190	39805	8.21	242.45
190	40362	8.31	242.45
190	40919	8.41	242.45
190	41476	8.51	242.45
190	42033	8.61	242.45
190	42590	8.71	242.45
190	43147	8.81	242.45
190	43704	8.91	242.45
190	44269	9.01	242.45
190	44826	9.11	242.45
190	45383	9.21	242.45
190	45940	9.31	242.45
190	46497	9.41	242.45
190	47054	9.51	242.45
190	47611	9.61	242.45
190	48168	9.71	242.45
190	48725	9.81	242.45
190	49282	9.91	242.45
190	49847	10.01	242.45
190	50404	10.11	242.45
190	50961	10.21	242.45
190	51518	10.31	242.45
190	52075	10.41	242.45
190	52632	10.51	242.45
190	53189	10.61	242.45
190	53746	10.71	242.45
190	54303	10.81	242.45
190	54860	10.91	242.45
190	55425	11.01	242.45
190	55982	11.11	242.45
190	56539	11.21	242.45
190	57096	11.31	242.45
190	57653	11.41	242.45
190	58210	11.51	242.45
190	58767	11.61	242.45
190	59324	11.71	242.45
190	59881	11.81	242.45
190	60438	11.91	242.45
190	61003	12.01	242.45
190	61560	12.11	242.45
190	62117	12.21	242.45
190	62674	12.31	242.45
190	63231	12.41	242.45
190	63788	12.51	242.45
190	64345	12.61	242.45
190	64902	12.71	242.45
190	65459	12.81	242.45
190	66016	12.91	242.45
190	66581	13.01	242.45
190	67138	13.11	242.45
190	67695	13.21	242.45
190	68252	13.31	242.45
190	68809	13.41	242.45
190	69366	13.51	242.45
190	69923	13.61	242.45
190	70480	13.71	242.45
190	71037	13.81	242.45
190	71594	13.91	242.45
190	72159	14.01	242.45
190	72716	14.11	242.45
190	73273	14.21	242.45
190	73830	14.31	242.45
190	74387	14.41	242.45
190	74944	14.51	242.45
190	75501	14.61	242.45
190	76058	14.71	242.45
190	76615	14.81	242.45
190	77172	14.91	242.45
190	77737	15.01	242.45
190	78294	15.11	242.45
190	78851	15.21	242.45
190	79408	15.31	242.45
190	79965	15.41	242.45
190	80522	15.51	242.45
190	81079	15.61	242.45
190	81636	15.71	242.45
190	82193	15.81	242.45
190	82750	15.91	242.45
190	83315	16.01	242.45
190	83872	16.11	242.45
190	84429	16.21	242.45
190	84986	16.31	242.45
190	85543	16.41	242.45
190	86100	16.51	242.45
190	86657	16.61	242.45
190	87214	16.71	242.45
190	87771	16.81	242.45
190	88328	16.91	242.45
190	88893	17.01	242.45
190	89450	17.11	242.45
190	90007	17.21	242.45
190	90564	17.31	242.45
190	91121	17.41	242.45
190	91678	17.51	242.45
190	92235	17.61	242.45
190	92792	17.71	242.45
190	93349	17.81	242.45
190	93906	17.91	242.45
190	94471	18.01	242.45
190	95028	18.11	242.45
190	95585	18.21	242.45
190	96142	18.31	242.45
190	96699	18.41	242.45
190	97256	18.51	242.45
190	97813	18.61	242.45
190	98370	18.71	242.45
190	98927	18.81	242.45
190	99484	18.91	242.45
190	100049	19.01	242.45
190	100606	19.11	242.45
190	101163	19.21	242.45
190	101720	19.31	242.45
190	102277	19.41	242.45
190	102834	19.51	242.45
190	103391	19.61	242.45
190	103948	19.71	242.45
190	104505	19.81	242.45
190	105062	19.91	242.45
190	105627	20.01	242.45
190	106184	20.11	242.45
190	106741	20.21	242.45
190	107298	20.31	242.45
190	107855	20.41	242.45
190	108412	20.51	242.45
190	108969	20.61	242.45
190	109526	20.71	242.45
190	110083	20.81	242.45
190	110640	20.91	242.45
190	111205	21.01	242.45
190	111762	21.11	242.45
190	112319	21.21	242.45
190	112876	21.31	242.45
190	113433	21.41	242.45
190	113990	21.51	242.45
190	114547	21.61	242.45
190	115104	21.71	242.45
190	115661	21.81	242.45
190	116218	21.91	242.45
190	116783	22.01	242.45
190	117340	22.11	242.45
190	117897	22.21	242.45
190	118454	22.31	242.45
190	119011	22.41	242.45
190	119568	22.51	242.45
190	120125	22.61	242.45
190	120682	22.71	242.45
190	121239	22.81	242.45
190	121796	22.91	242.45
190	122361	23.01	242.45
190	122918	23.11	242.45
190	123475	23.21	242.45
190	124032	23.31	242.45
190	124589	23.41	242.45
190	125146	23.51	242.45
190	125703	23.61	242.45
190	126260	23.71	242.45
190	126817	23.81	242.45
190	127374	23.91	242.45
190	127939	24.01	242.45
190	128496	24.11	242.45
190	129053	24.21	242.45
190	129610	24.31	242.45
190	130167	24.41	242.45
190	130724	24.51	242.45
190	131281	24.61	242.45
190	131838	24.71	242.45
190	132395	24.81	242.45
190	132952	24.91	242.45
190	133517	25.01	242.45
190	134074	25.11	242.45
190	134631	25.21	242.45
190	135188	25.31	242.45
190	135745	25.41	242.45
190	136302	25.51	242.45
190	136859	25.61	242.45
190	137416	25.71	242.45
190	137973	25.81	242.45
190	138530	25.91	242.45
190	139095	26.01	242.45
190	139652	26.11	242.45
190	140209	26.21	242.45
190	140766	26.31	242.45
190	141323	26.41	242.45
190	141880	26.51	242.45
190	142437	26.61	242.45
190	142994	26.71	242.45
190	143551	26.81	242.45
190	144108	26.91	242.45
190	144673	27.01	242.45
190	145230	27.11	242.45
190	145787	27.21	242.45
190	146344	27.31	242.45
190	146901	27.41	242.45
190	147458	27.51	242.45
190	148015	27.61	242.45
190	148572	27.71	242.45
190	149129	27.81	242.45
190	149686	27.91	242.45
190	150251	28.01	242.45
190	150808	28.11	242.45
190	151365	28.21	242.45
190	151922	28.31	242.45
190	152479	28.41	242.45
190	153036	28.51	242.45
190	153593	28.61	242.45
190	154150	28.71	242.45
190	154707	28.81	242.45
190	155264	28.91	242.45
190	155829	29.01	242.45
190	156386	29.11	242.45
190	156943	29.21	242.45
190	157500	29.31	242.45
190	158057	29.41	242.45
190	158614	29.51	242.45
190	159171	29.61	242.45
190	159728	29.71	242.45
190	160285	29.81	242.45
190	160842	29.91	242.45
190	161407	30.01	242.45
190	161964	30.11	242.45
190	162521	30.21	242.45
190	163078	30.31	242.45
190	163635	30.41	242.45
190	164192	30.51	242.45
190	164749	30.61	242.45
190	165306	30.71	242.45
190	165863	30.81	242.45
190	166420	30.91	242.45
190	166985	31.01	242.45
190	167542	31.11	242.45
190	168099	31.21	242.45
190	168656	31.31	242.45
190	169213	31.41	242.45
190	169770	31.51	242.45
190	170327	31.61	242.45
190	170884	31.71	242.45
190	171441	31.81	242.45
190	171998	31.91	242.45
190	172563	32.01	242.45
190	173120	32.11	242.45
190	173677	32.21	242.45
190	174234	32.31	242.45
190	174791	32.41	242.45
190	175348	32.51	242.45
190	175905	32.61	242.45
190	176462	32.71	242.45
190	177019	32.81	242.45
190	177576	32.91	242.45
190	178141	33.01	242.45
190	178698	33.11	242.45
190	179255	33.21	242.45
190	179812	33.31	242.45
190	180369	33.41	242.45
190	180926	33.51	242.45
190	181483	33.61	242.45
190	182040	33.71	242.45
190	182597	33.81	242.45
190	183154	33.91	242.45
190	183719	34.01	242.45
190	184276	34.11	242.45
190	184833	34.21	242.45
190	185390	34.31	242.45
190	185947	34.41	242.45
190	186504	34.51	242.45
190	187061	34.61	242.45
190	187618	34.71	242.45
190	188175	34.81	242.45
190	188732	34.91	242.45
190	189297	35.01	242.45
190	189854	35.11	242.45
190	190411	35.21	242.45
190	190968	35.31	242.45
190	191525	35.41	242.45
190	192082	35.51	242.45
190	192639	35.61	242.45
190	193196	35.71	242.45
190	193753	35.81	242.45
190	194310	35.91	242.45
190	194875	36.01	242.45
190	195432	36.11	242.45
190	195989	36.21	242.45
190	196546	36.31	242.45
190	197103	36.41	242.45
190	197660	36.51	242.45
190	198217	36.61	242.45
190	198774	36.71	242.45
190	199331	36.81	242.45
190	199888	36.91	242.45
190	200453	37.01	242.45
190	201010	37.11	242.45
190	201567	37.21	242.45
190	202124	37.31	242.45
190	202681	37.41	242.45
190	203238	37.51	242.45
190	203795	37.61	242.45
190	204352	37.71	242.45
190	204909	37.81	242.45
190	205466	37.91	242.45
190	206031	38.01	242.45
190	206588	38.11	242.45
190	207145	38.21	242.45
190	207702	38.31	242.45
190	208259	38.41	242.45
190	208816	38.51	242.45
190	209373	38.61	242.45
190	209930	38.71	242.45
190	210487	38.81	242.45
190	211044	38.91	242.45
190	211609	39.01	242.45
190	212166	39.11	242.45
190	212723	39.21	242.45
190	213280	39.31	242.45
190	213837	39.41	242.45
190	214394	39.51	242.45
190	214951	39.61	242.45
190	215508	39.71	242.45
190	216065	39.81	242.45
190	216622	39.91	242.45
190	217187	40.01	242.45
190	217744	40.11	242.45
190	218301	40.21	242.45
190	218858	40.31	242.45
190	219415	40.41	242.45
190	219972	40.51	242.45
190	220529	40.61	242.45
190	221086	40.71	242.45
190	221643	40.81	242.45
190	222200	40.91	242.45
190	222765	41.01	242.45
190	223322	41.11	242.45
190	223879	41.21	242.45
190	224436	41.31	242.45
190	224993	41.41	242.45
190	225550	41.51	242.45
190	226107	41.61	242.45
190	226664	41.71	242.45
190	227221	41.81	242.45
190	227778	41.91	242.45
190	228343	42.01	242.45
190	228900	42.11	242.45
190	229457	42.21	242.45
190	230014	42.31	242.45
190	230571	42.41	242.45
190	231128	42.51	242.45
190	231685	42.61	242.45
190	232242	42.71	242.45
190	232799	42.81	242.45
190	233356	42.91	242.45
190	233921	43.01	242.45
190	234478	43.11	242.45
190	235035	43.21	242.45
190	235592	43.31	242.45
190	236149	43.41	242.45
190	236706	43.51	242.45
190	237263	43.61	242.45
190	237820	43.71	242.45
190	238377	43.81	242.45
190	238934	43.91	242.45
190	239499	44.01	242.45
190	240056	44.11	242.45
190	240613	44.21	242.45
190	241170	44.31	242.45
190	241727	44.41	242.45
190	242284	44.51	242.45
190	242841	44.61	242.45
190	243398	44.71	242.45
190	243955	44.81	242.45
190	244512	44.91	242.45
190	245077	45.01	242.45
190	245634	45.11	242.45
190	246191	45.21	242.45
190	246748	45.31	242.45
190	247305	45.41	242.45
190	247862	45.51	242.45
190	248419	45.61	242.45
190	248976	45.71	242.45
190	249533	45.81	242.45
190	250090	45.91	242.45
190	250655	46.01	242.45
190	251212	46.11	242.45
190	251769	46.21	242.45
190	252326	46.31	242.45
190	252883	46.41	242.45
190	253440	46.51	242.45
190	253997	46.61	242.45
190	254554	46.71	242.45
190	255111	46.81	242.45
190	255668	46.91	242.45
190	256233	47.01	242.45
190	256790	47.11	242.45
190	257347	47.21	242.45
190	257904	47.31	242.45
190	258461	47.41	242.45
190	259018	47.51	242.45
190	259575	47.61	242.45
190	260132	47.71	242.45
190	260689	47.81	242.45
190	261246	47.91	242.45
190	261811	48.01	242.45
190	262368	48.11	242.45
190	262925	48.21	242.45
190	263482	48.31	242.45
190	264039	48.41	242.45
190	264596	48.51	242.45
190	265153	48.61	242.45
190	265710	48.71	242.45
190	266267	48.81	242.45
190	266824	48.91	242.45
190	267389	49.01	242.45
190	267946	49.11	242.45
190	268503	49.21	242.45
190	269060	49.31	242.45
190	269617	49.41	242.45
190	270174	49.51	242.45
190	270731	49.61	242.45
190	271288	49.71	242.45
190	271845	49.81	242.45
190	272402	49.91	242.45
190	272967	50.01	242.45
190	273524	50.11	242.45
190	274081	50.21	242.45
190	274638	50.31	242.45
190	275195	50.41	242.45
190	275752	50.51	242.45
190	276309	50.61	242.45
190	276866	50.71	242.45
190	277423	50.81	242.45
190	277980	50.91	242.45
190	278545	51.01	242.45
190	279102	51.11	242.45
190	279659	51.21	242.45
190	280216	51.31	242.45
190	280773	51.41	242.45
190	281330	51.51	242.45
190	281887	51.61	242.45
190	282444	51.71	242.45
190	283001	51.81	242.45
190	283558	51.91	242.45
190	284123	52.01	242.45
190	284680	52.11	242.45
190	285237	52.21	242.45
190	285794	52.31	242.45
190	286351	52.41	242.45
190	286908	52.51	242.45
190	287465	52.61	242.45
190	288022	52.71	242.45
190	288579	52.81	242.45
190	289136	52.91	242.45
190	289701	53.01	242.45
190	290258	53.11	242.45
190	290815	53.21	242.45
190	291372	53.31	242.45
190	291929	53.41	242.45
190	292486	53.51	242.45
190	293043	53.61	242.45
190	293600	53.71	242.45
190	294157	53.81	242.45
190	294714	53.91	242.45
190	295279	54.01	242.45
190	295836	54.11	242.45
190	296393	54.21	242.45
190	296950	54.31	242.45
190	297507	54.41	242.45
190	298064	54.51	242.45
190	298621	54.61	242.45
190	299178	54.71	242.45
190	299735	54.81	242.45
190	300292	54.91	242.45
190	300857	55.01	242.45
190	301414	55.11	242.45
190	301971	55.21	242.45
190	302528	55.31	242.45
190	303085	55.41	242.45
190	303642	55.51	242.45
190	304199	55.61	242.45
190	304756	55.71	242.45
190	305313	55.81	242.45
190	305870	55.91	242.45
190	306435	56.01	242.45
190	306992	56.11	242.45
190	307549	56.21	242.45
190	308106	56.31	242.45
190	308663	56.41	242.45
190	309220	56.51	242.45
190	309777	56.61	242.45
190	310334	56.71	242.45
190	310891	56.81	242.45
190	311448	56.91	242.45
190	312013	57.01	242.45
190	312570	57.11	242.45
190	313127	57.21	242.45
190	313684	57.31	242.45
190	314241	57.41	242.45
190	314798	57.51	242.45
190	315355	57.61	242.45
190	315912	57.71	242.45
190	316469	57.81	242.45
190	317026	57.91	242.45
190	317591	58.01	242.45
190	318148	58.11	242.45
190	318705	58.21	242.45
190	319262	58.31	242.45
190	319819	58.41	242.45
190	320376	58.51	242.45
190	320933	58.61	242.45
190	321490	58.71	242.45
190	322047	58.81	242.45
190	322604	58.91	242.45
190	323169	59.01	242.45
190	323726	59.11	242.45
190	324283	59.21	242.45
190	324840	59.31	242.45
190	325397	59.41	242.45
190	325954	59.51	242.45
190	326511	59.61	242.45
190	327068	59.71	242.45
190	327625	59.81	242.45
190	328182	59.91	242.45
189	233	1.11	73.9402
189	790	1.21	76.7182
189	1346	1.31	79.4962
189	1903	1.41	82.2742
189	2460	1.51	85.0521
189	3016	1.61	87.8301
189	3572	1.71	90.608
189	4129	1.81	93.386
189	4685	1.91	96.1639
189	5252	2.01	98.9418
189	5808	2.11	101.72
189	6364	2.21	104.498
189	6920	2.31	107.275
189	7476	2.41	110.053
189	8032	2.51	112.831
189	8588	2.61	115.609
189	9144	2.71	118.387
189	9700	2.81	121.165
189	10256	2.91	123.942
189	10820	3.01	126.72
189	11376	3.11	129.498
189	11932	3.21	132.276
189	12488	3.31	135.054
189	13044	3.41	137.831
189	13600	3.51	140.609
189	14156	3.61	143.387
189	14712	3.71	146.165
189	15268	3.81	148.942
189	15824	3.91	151.72
189	16388	4.01	154.498
189	16944	4.11	157.276
189	17500	4.21	160.053
189	18056	4.31	162.831
189	18612	4.41	165.609
189	19168	4.51	168.387
189	19724	4.61	171.165
189	20280	4.71	173.942
189	20836	4.81	176.72
189	21392	4.91	179.498
189	21957	5.01	182.276
189	22514	5.11	185.053
189	23071	5.21	187.832
189	23628	5.31	190.613
189	24185	5.41	193.398
189	24742	5.51	196.191
189	25299	5.61	198.991
189	25856	5.71	201.801
189	26413	5.81	204.621
189	26970	5.91	207.452
189	27535	6.01	210.295
189	28092	6.11	213.151
189	28649	6.21	216.02
189	29206	6.31	218.901
189	29763	6.41	221.797
189	30320	6.51	224.706
189	30877	6.61	227.629
189	31434	6.71	230.567
189	31991	6.81	233.519
189	32548	6.91	236.485
189	33113	7.01	239.466
189	33670	7.11	242.461
189	34227	7.21	245.472
189	34784	7.31	248.496
189	35341	7.41	251.535
189	35898	7.51	254.583
189	36455	7.61	257.638
189	37012	7.71	260.695
189	37569	7.81	263.751
189	38126	7.91	266.804
189	38691	8.01	269.851
189	39248	8.11	272.891
189	39805	8.21	275.923
189	40362	8.31	278.944
189	40919	8.41	281.956
189	41476	8.51	284.955
189	42033	8.61	287.943
189	42590	8.71	290.918
189	43147	8.81	293.879
189	43704	8.91	296.828
189	44269	9.01	299.763
189	44826	9.11	302.684
189	45383	9.21	305.59
189	45940	9.31	308.483
189	46497	9.41	311.361
189	47054	9.51	314.224
189	47611	9.61	317.073
189	48168	9.71	319.908
189	48725	9.81	322.727
189	49282	9.91	325.532
189	49847	10.01	328.322
189	50404	10.11	331.098
189	50961	10.21	333.863
189	51518	10.31	336.621
189	52075	10.41	339.376
189	52632	10.51	342.132
189	53189	10.61	344.891
189	53746	10.71	347.654
189	54303	10.81	350.425
189	54860	10.91	353.204
189	55425	11.01	355.992
189	55982	11.11	358.791
189	56539	11.21	361.601
189	57096	11.31	364.423
189	57653	11.41	367.258
189	58210	11.51	370.106
189	58767	11.61	372.967
189	59324	11.71	375.842
189	59881	11.81	378.73
189	60438	11.91	381.633
189	61003	12.01	384.55
189	61560	12.11	387.481
189	62117	12.21	390.427
189	62674	12.31	393.387
189	63231	12.41	396.362
189	63788	12.51	399.348
189	64345	12.61	402.343
189	64902	12.71	405.342
189	65459	12.81	408.342
189	66016	12.91	411.339
189	66581	13.01	414.333
189	67138	13.11	417.32
189	67695	13.21	420.299
189	68252	13.31	423.269
189	68809	13.41	426.228
189	69366	13.51	429.177
189	69923	13.61	432.114
189	70480	13.71	435.038
189	71037	13.81	437.95
189	71594	13.91	440.849
189	72159	14.01	443.734
189	72716	14.11	446.605
189	73273	14.21	449.462
189	73830	14.31	452.305
189	74387	14.41	455.133
189	74944	14.51	457.948
189	75501	14.61	460.747
189	76058	14.71	463.532
189	76615	14.81	466.302
189	77172	14.91	469.058
189	77737	15.01	471.799
189	78294	15.11	474.527
189	78851	15.21	477.245
189	79408	15.31	479.959
189	79965	15.41	482.67
189	80522	15.51	485.383
189	81079	15.61	488.1
189	81636	15.71	490.823
189	82193	15.81	493.553
189	82750	15.91	496.292
189	83315	16.01	499.041
189	83872	16.11	501.8
189	84429	16.21	504.572
189	84986	16.31	507.355
189	85543	16.41	510.151
189	86100	16.51	512.961
189	86657	16.61	515.783
189	87214	16.71	518.62
189	87771	16.81	521.47
189	88328	16.91	524.335
189	88893	17.01	527.214
189	89450	17.11	530.107
189	90007	17.21	533.015
189	90564	17.31	535.937
189	91121	17.41	538.874
189	91678	17.51	541.824
189	92235	17.61	544.783
189	92792	17.71	547.747
189	93349	17.81	550.713
189	93906	17.91	553.677
189	94471	18.01	556.638
189	95028	18.11	559.592
189	95585	18.21	562.54
189	96142	18.31	565.478
189	96699	18.41	568.406
189	97256	18.51	571.324
189	97813	18.61	574.23
189	98370	18.71	577.123
189	98927	18.81	580.004
189	99484	18.91	582.872
189	100049	19.01	585.726
189	100606	19.11	588.567
189	101163	19.21	591.393
189	101720	19.31	594.206
189	102277	19.41	597.004
189	102834	19.51	599.788
189	103391	19.61	602.557
189	103948	19.71	605.312
189	104505	19.81	608.052
189	105062	19.91	610.777
189	105627	20.01	613.488
189	106184	20.11	616.186
189	106741	20.21	618.876
189	107298	20.31	621.561
189	107855	20.41	624.246
189	108412	20.51	626.932
189	108969	20.61	629.623
189	109526	20.71	632.319
189	110083	20.81	635.024
189	110640	20.91	637.737
189	111205	21.01	640.461
189	111762	21.11	643.196
189	112319	21.21	645.942
189	112876	21.31	648.701
189	113433	21.41	651.472
189	113990	21.51	654.257
189	114547	21.61	657.055
189	115104	21.71	659.867
189	115661	21.81	662.693
189	116218	21.91	665.533
189	116783	22.01	668.388
189	117340	22.11	671.257
189	117897	22.21	674.14
189	118454	22.31	677.038
189	119011	22.41	679.951
189	119568	22.51	682.877
189	120125	22.61	685.813
189	120682	22.71	688.755
189	121239	22.81	691.699
189	121796	22.91	694.642
189	122361	23.01	697.581
189	122918	23.11	700.515
189	123475	23.21	703.442
189	124032	23.31	706.359
189	124589	23.41	709.268
189	125146	23.51	712.165
189	125703	23.61	715.051
189	126260	23.71	717.925
189	126817	23.81	720.786
189	127374	23.91	723.634
189	127939	24.01	726.469
189	128496	24.11	729.289
189	129053	24.21	732.096
189	129610	24.31	734.889
189	130167	24.41	737.668
189	130724	24.51	740.432
189	131281	24.61	743.182
189	131838	24.71	745.917
189	132395	24.81	748.637
189	132952	24.91	751.343
189	133517	25.01	754.034
189	134074	25.11	756.714
189	134631	25.21	759.385
189	135188	25.31	762.053
189	135745	25.41	764.72
189	136302	25.51	767.389
189	136859	25.61	770.062
189	137416	25.71	772.742
189	137973	25.81	775.43
189	138530	25.91	778.128
189	139095	26.01	780.835
189	139652	26.11	783.554
189	140209	26.21	786.284
189	140766	26.31	789.027
189	141323	26.41	791.783
189	141880	26.51	794.551
189	142437	26.61	797.334
189	142994	26.71	800.13
189	143551	26.81	802.94
189	144108	26.91	805.765
189	144673	27.01	808.604
189	145230	27.11	811.457
189	145787	27.21	814.325
189	146344	27.31	817.207
189	146901	27.41	820.104
189	147458	27.51	823.015
189	148015	27.61	825.936
189	148572	27.71	828.864
189	149129	27.81	831.794
189	149686	27.91	834.723
189	150251	28.01	837.65
189	150808	28.11	840.571
189	151365	28.21	843.485
189	151922	28.31	846.39
189	152479	28.41	849.286
189	153036	28.51	852.171
189	153593	28.61	855.045
189	154150	28.71	857.906
189	154707	28.81	860.756
189	155264	28.91	863.592
189	155829	29.01	866.414
189	156386	29.11	869.223
189	156943	29.21	872.019
189	157500	29.31	874.8
189	158057	29.41	877.566
189	158614	29.51	880.319
189	159171	29.61	883.057
189	159728	29.71	885.78
189	160285	29.81	888.488
189	160842	29.91	891.182
189	161407	30.01	893.862
189	161964	30.11	896.53
189	162521	30.21	899.19
189	163078	30.31	901.847
189	163635	30.41	904.503
189	164192	30.51	907.162
189	164749	30.61	909.826
189	165306	30.71	912.496
189	165863	30.81	915.174
189	166420	30.91	917.861
189	166985	31.01	920.559
189	167542	31.11	923.268
189	168099	31.21	925.988
189	168656	31.31	928.721
189	169213	31.41	931.467
189	169770	31.51	934.227
189	170327	31.61	937
189	170884	31.71	939.786
189	171441	31.81	942.587
189	171998	31.91	945.402
189	172563	32.01	948.231
189	173120	32.11	951.075
189	173677	32.21	953.934
189	174234	32.31	956.807
189	174791	32.41	959.694
189	175348	32.51	962.596
189	175905	32.61	965.508
189	176462	32.71	968.427
189	177019	32.81	971.349
189	177576	32.91	974.271
189	178141	33.01	977.19
189	178698	33.11	980.103
189	179255	33.21	983.01
189	179812	33.31	985.908
189	180369	33.41	988.797
189	180926	33.51	991.675
189	181483	33.61	994.541
189	182040	33.71	997.396
189	182597	33.81	1000.24
189	183154	33.91	1003.07
189	183719	34.01	1005.88
189	184276	34.11	1008.69
189	184833	34.21	1011.47
189	185390	34.31	1014.25
189	185947	34.41	1017.01
189	186504	34.51	1019.75
189	187061	34.61	1022.49
189	187618	34.71	1025.2
189	188175	34.81	1027.9
189	188732	34.91	1030.59
189	189297	35.01	1033.26
189	189854	35.11	1035.93
189	190411	35.21	1038.58
189	190968	35.31	1041.23
189	191525	35.41	1043.88
189	192082	35.51	1046.53
189	192639	35.61	1049.19
189	193196	35.71	1051.86
189	193753	35.81	1054.53
189	194310	35.91	1057.21
189	194875	36.01	1059.9
189	195432	36.11	1062.61
189	195989	36.21	1065.32
189	196546	36.31	1068.05
189	197103	36.41	1070.79
189	197660	36.51	1073.54
189	198217	36.61	1076.31
189	198774	36.71	1079.09
189	199331	36.81	1081.89
189	199888	36.91	1084.7
189	200453	37.01	1087.52
189	201010	37.11	1090.36
189	201567	37.21	1093.21
189	202124	37.31	1096.08
189	202681	37.41	1098.96
189	203238	37.51	1101.86
189	203795	37.61	1104.77
189	204352	37.71	1107.68
189	204909	37.81	1110.6
189	205466	37.91	1113.52
189	206031	38.01	1116.43
189	206588	38.11	1119.34
189	207145	38.21	1122.24
189	207702	38.31	1125.14
189	208259	38.41	1128.02
189	208816	38.51	1130.89
189	209373	38.61	1133.76
189	209930	38.71	1136.61
189	210487	38.81	1139.45
189	211044	38.91	1142.27
189	211609	39.01	1145.08
189	212166	39.11	1147.88
189	212723	39.21	1150.67
189	213280	39.31	1153.44
189	213837	39.41	1156.19
189	214394	39.51	1158.94
189	214951	39.61	1161.66
189	215508	39.71	1164.38
189	216065	39.81	1167.07
189	216622	39.91	1169.76
189	217187	40.01	1172.43
189	217744	40.11	1175.09
189	218301	40.21	1177.74
189	218858	40.31	1180.38
189	219415	40.41	1183.03
189	219972	40.51	1185.68
189	220529	40.61	1188.33
189	221086	40.71	1191
189	221643	40.81	1193.66
189	222200	40.91	1196.34
189	222765	41.01	1199.03
189	223322	41.11	1201.73
189	223879	41.21	1204.45
189	224436	41.31	1207.17
189	224993	41.41	1209.91
189	225550	41.51	1212.66
189	226107	41.61	1215.42
189	226664	41.71	1218.2
189	227221	41.81	1220.99
189	227778	41.91	1223.8
189	228343	42.01	1226.62
189	228900	42.11	1229.46
189	229457	42.21	1232.31
189	230014	42.31	1235.17
189	230571	42.41	1238.05
189	231128	42.51	1240.95
189	231685	42.61	1243.85
189	232242	42.71	1246.76
189	232799	42.81	1249.68
189	233356	42.91	1252.59
189	233921	43.01	1255.5
189	234478	43.11	1258.41
189	235035	43.21	1261.31
189	235592	43.31	1264.2
189	236149	43.41	1267.09
189	236706	43.51	1269.96
189	237263	43.61	1272.82
189	237820	43.71	1275.67
189	238377	43.81	1278.5
189	238934	43.91	1281.33
189	239499	44.01	1284.14
189	240056	44.11	1286.93
189	240613	44.21	1289.72
189	241170	44.31	1292.49
189	241727	44.41	1295.24
189	242284	44.51	1297.98
189	242841	44.61	1300.7
189	243398	44.71	1303.42
189	243955	44.81	1306.11
189	244512	44.91	1308.79
189	245077	45.01	1311.46
189	245634	45.11	1314.12
189	246191	45.21	1316.76
189	246748	45.31	1319.41
189	247305	45.41	1322.06
189	247862	45.51	1324.7
189	248419	45.61	1327.36
189	248976	45.71	1330.02
189	249533	45.81	1332.68
189	250090	45.91	1335.36
189	250655	46.01	1338.05
189	251212	46.11	1340.75
189	251769	46.21	1343.46
189	252326	46.31	1346.18
189	252883	46.41	1348.92
189	253440	46.51	1351.67
189	253997	46.61	1354.43
189	254554	46.71	1357.21
189	255111	46.81	1360
189	255668	46.91	1362.8
189	256233	47.01	1365.62
189	256790	47.11	1368.46
189	257347	47.21	1371.31
189	257904	47.31	1374.17
189	258461	47.41	1377.05
189	259018	47.51	1379.94
189	259575	47.61	1382.84
189	260132	47.71	1385.75
189	260689	47.81	1388.67
189	261246	47.91	1391.58
189	261811	48.01	1394.49
189	262368	48.11	1397.4
189	262925	48.21	1400.3
189	263482	48.31	1403.19
189	264039	48.41	1406.07
189	264596	48.51	1408.94
189	265153	48.61	1411.8
189	265710	48.71	1414.65
189	266267	48.81	1417.48
189	266824	48.91	1420.3
189	267389	49.01	1423.11
189	267946	49.11	1425.91
189	268503	49.21	1428.69
189	269060	49.31	1431.46
189	269617	49.41	1434.21
189	270174	49.51	1436.95
189	270731	49.61	1439.67
189	271288	49.71	1442.38
189	271845	49.81	1445.08
189	272402	49.91	1447.76
189	272967	50.01	1450.42
189	273524	50.11	1453.08
189	274081	50.21	1455.73
189	274638	50.31	1458.37
189	275195	50.41	1461.02
189	275752	50.51	1463.66
189	276309	50.61	1466.32
189	276866	50.71	1468.97
189	277423	50.81	1471.64
189	277980	50.91	1474.32
189	278545	51.01	1477
189	279102	51.11	1479.7
189	279659	51.21	1482.41
189	280216	51.31	1485.13
189	280773	51.41	1487.87
189	281330	51.51	1490.62
189	281887	51.61	1493.38
189	282444	51.71	1496.16
189	283001	51.81	1498.95
189	283558	51.91	1501.75
189	284123	52.01	1504.57
189	284680	52.11	1507.4
189	285237	52.21	1510.25
189	285794	52.31	1513.11
189	286351	52.41	1515.99
189	286908	52.51	1518.88
189	287465	52.61	1521.79
189	288022	52.71	1524.7
189	288579	52.81	1527.61
189	289136	52.91	1530.52
189	289701	53.01	1533.43
189	290258	53.11	1536.34
189	290815	53.21	1539.24
189	291372	53.31	1542.13
189	291929	53.41	1545.01
189	292486	53.51	1547.88
189	293043	53.61	1550.74
189	293600	53.71	1553.58
189	294157	53.81	1556.42
189	294714	53.91	1559.24
189	295279	54.01	1562.05
189	295836	54.11	1564.84
189	296393	54.21	1567.62
189	296950	54.31	1570.39
189	297507	54.41	1573.14
189	298064	54.51	1575.88
189	298621	54.61	1578.6
189	299178	54.71	1581.31
189	299735	54.81	1584.01
189	300292	54.91	1586.69
189	300857	55.01	1589.35
189	301414	55.11	1592.01
189	301971	55.21	1594.66
189	302528	55.31	1597.3
189	303085	55.41	1599.94
189	303642	55.51	1602.59
189	304199	55.61	1605.24
189	304756	55.71	1607.9
189	305313	55.81	1610.57
189	305870	55.91	1613.24
189	306435	56.01	1615.93
189	306992	56.11	1618.63
189	307549	56.21	1621.34
189	308106	56.31	1624.06
189	308663	56.41	1626.79
189	309220	56.51	1629.54
189	309777	56.61	1632.3
189	310334	56.71	1635.08
189	310891	56.81	1637.87
189	311448	56.91	1640.67
189	312013	57.01	1643.49
189	312570	57.11	1646.32
189	313127	57.21	1649.17
189	313684	57.31	1652.03
189	314241	57.41	1654.91
189	314798	57.51	1657.8
189	315355	57.61	1660.7
189	315912	57.71	1663.61
189	316469	57.81	1666.53
189	317026	57.91	1669.44
189	317591	58.01	1672.35
189	318148	58.11	1675.25
189	318705	58.21	1678.15
189	319262	58.31	1681.04
189	319819	58.41	1683.92
189	320376	58.51	1686.79
189	320933	58.61	1689.65
189	321490	58.71	1692.5
189	322047	58.81	1695.33
189	322604	58.91	1698.15
189	323169	59.01	1700.96
189	323726	59.11	1703.75
189	324283	59.21	1706.54
189	324840	59.31	1709.3
189	325397	59.41	1712.05
189	325954	59.51	1714.79
189	326511	59.61	1717.52
189	327068	59.71	1720.22
189	327625	59.81	1722.92
189	328182	59.91	1725.6
188	233	1.11	27.78
188	790	1.21	27.7799
188	1346	1.31	27.7798
188	1903	1.41	27.7797
188	2460	1.51	27.7796
188	3016	1.61	27.7795
188	3572	1.71	27.7794
188	4129	1.81	27.7792
188	4685	1.91	27.7791
188	5252	2.01	27.7789
188	5808	2.11	27.7788
188	6364	2.21	27.7787
188	6920	2.31	27.7785
188	7476	2.41	27.7784
188	8032	2.51	27.7783
188	8588	2.61	27.7782
188	9144	2.71	27.7782
188	9700	2.81	27.7781
188	10256	2.91	27.778
188	10820	3.01	27.7779
188	11376	3.11	27.7779
188	11932	3.21	27.7779
188	12488	3.31	27.7778
188	13044	3.41	27.7778
188	13600	3.51	27.7778
188	14156	3.61	27.7777
188	14712	3.71	27.7777
188	15268	3.81	27.7777
188	15824	3.91	27.7777
188	16388	4.01	27.7777
188	16944	4.11	27.7777
188	17500	4.21	27.7777
188	18056	4.31	27.7777
188	18612	4.41	27.7777
188	19168	4.51	27.7777
188	19724	4.61	27.7777
188	20280	4.71	27.7777
188	20836	4.81	27.7777
188	21392	4.91	27.7777
188	21957	5.01	27.7777
188	22514	5.11	27.778
188	23071	5.21	27.7926
188	23628	5.31	27.8297
188	24185	5.41	27.8871
188	24742	5.51	27.9611
188	25299	5.61	28.0488
188	25856	5.71	28.1477
188	26413	5.81	28.2558
188	26970	5.91	28.3713
188	27535	6.01	28.4931
188	28092	6.11	28.62
188	28649	6.21	28.751
188	29206	6.31	28.8854
188	29763	6.41	29.0226
188	30320	6.51	29.1621
188	30877	6.61	29.3035
188	31434	6.71	29.4465
188	31991	6.81	29.5907
188	32548	6.91	29.7359
188	33113	7.01	29.882
188	33670	7.11	30.0288
188	34227	7.21	30.1762
188	34784	7.31	30.3195
188	35341	7.41	30.4419
188	35898	7.51	30.5238
188	36455	7.61	30.564
188	37012	7.71	30.5701
188	37569	7.81	30.5481
188	38126	7.91	30.5032
188	38691	8.01	30.4394
188	39248	8.11	30.36
188	39805	8.21	30.268
188	40362	8.31	30.1656
188	40919	8.41	30.0546
188	41476	8.51	29.9366
188	42033	8.61	29.8129
188	42590	8.71	29.6844
188	43147	8.81	29.5521
188	43704	8.91	29.4166
188	44269	9.01	29.2785
188	44826	9.11	29.1383
188	45383	9.21	28.9963
188	45940	9.31	28.8528
188	46497	9.41	28.7082
188	47054	9.51	28.5626
188	47611	9.61	28.4163
188	48168	9.71	28.2692
188	48725	9.81	28.1217
188	49282	9.91	27.9737
188	49847	10.01	27.827
188	50404	10.11	27.6985
188	50961	10.21	27.6089
188	51518	10.31	27.5614
188	52075	10.41	27.5494
188	52632	10.51	27.5665
188	53189	10.61	27.6074
188	53746	10.71	27.668
188	54303	10.81	27.7446
188	54860	10.91	27.8344
188	55425	11.01	27.935
188	55982	11.11	28.0445
188	56539	11.21	28.1613
188	57096	11.31	28.284
188	57653	11.41	28.4117
188	58210	11.51	28.5433
188	58767	11.61	28.6783
188	59324	11.71	28.8159
188	59881	11.81	28.9558
188	60438	11.91	29.0975
188	61003	12.01	29.2407
188	61560	12.11	29.3851
188	62117	12.21	29.5305
188	62674	12.31	29.6765
188	63231	12.41	29.8111
188	63788	12.51	29.9142
188	64345	12.61	29.9756
188	64902	12.71	29.9991
188	65459	12.81	29.9914
188	66016	12.91	29.9582
188	66581	13.01	29.9039
188	67138	13.11	29.8325
188	67695	13.21	29.7469
188	68252	13.31	29.6498
188	68809	13.41	29.5432
188	69366	13.51	29.4288
188	69923	13.61	29.308
188	70480	13.71	29.1819
188	71037	13.81	29.0515
188	71594	13.91	28.9177
188	72159	14.01	28.7809
188	72716	14.11	28.6417
188	73273	14.21	28.5006
188	73830	14.31	28.3579
188	74387	14.41	28.2139
188	74944	14.51	28.0688
188	75501	14.61	27.9228
188	76058	14.71	27.7762
188	76615	14.81	27.6289
188	77172	14.91	27.4812
188	77737	15.01	27.3406
188	78294	15.11	27.2257
188	78851	15.21	27.1523
188	79408	15.31	27.119
188	79965	15.41	27.1186
188	80522	15.51	27.1453
188	81079	15.61	27.1941
188	81636	15.71	27.2611
188	82193	15.81	27.343
188	82750	15.91	27.4371
188	83315	16.01	27.5413
188	83872	16.11	27.6537
188	84429	16.21	27.7729
188	84986	16.31	27.8976
188	85543	16.41	28.0268
188	86100	16.51	28.1598
188	86657	16.61	28.2958
188	87214	16.71	28.4344
188	87771	16.81	28.575
188	88328	16.91	28.7173
188	88893	17.01	28.8609
188	89450	17.11	29.0057
188	90007	17.21	29.1515
188	90564	17.31	29.2979
188	91121	17.41	29.4372
188	91678	17.51	29.5508
188	92235	17.61	29.6231
188	92792	17.71	29.6556
188	93349	17.81	29.6552
188	93906	17.91	29.628
188	94471	18.01	29.5787
188	95028	18.11	29.5113
188	95585	18.21	29.4291
188	96142	18.31	29.3347
188	96699	18.41	29.2303
188	97256	18.51	29.1177
188	97813	18.61	28.9984
188	98370	18.71	28.8736
188	98927	18.81	28.7442
188	99484	18.91	28.6112
188	100049	19.01	28.4751
188	100606	19.11	28.3365
188	101163	19.21	28.1958
188	101720	19.31	28.0535
188	102277	19.41	27.9098
188	102834	19.51	27.765
188	103391	19.61	27.6192
188	103948	19.71	27.4727
188	104505	19.81	27.3255
188	105062	19.91	27.178
188	105627	20.01	27.0411
188	106184	20.11	26.9346
188	106741	20.21	26.8699
188	107298	20.31	26.8437
188	107855	20.41	26.8492
188	108412	20.51	26.8806
188	108969	20.61	26.9334
188	109526	20.71	27.0036
188	110083	20.81	27.0881
188	110640	20.91	27.1844
188	111205	21.01	27.2904
188	111762	21.11	27.4043
188	112319	21.21	27.5246
188	112876	21.31	27.6503
188	113433	21.41	27.7804
188	113990	21.51	27.914
188	114547	21.61	28.0506
188	115104	21.71	28.1896
188	115661	21.81	28.3305
188	116218	21.91	28.4731
188	116783	22.01	28.617
188	117340	22.11	28.762
188	117897	22.21	28.9079
188	118454	22.31	29.0545
188	119011	22.41	29.1968
188	119568	22.51	29.3172
188	120125	22.61	29.3965
188	120682	22.71	29.4347
188	121239	22.81	29.439
188	121796	22.91	29.4156
188	122361	23.01	29.3695
188	122918	23.11	29.3047
188	123475	23.21	29.2246
188	124032	23.31	29.132
188	124589	23.41	29.029
188	125146	23.51	28.9176
188	125703	23.61	28.7993
188	126260	23.71	28.6753
188	126817	23.81	28.5466
188	127374	23.91	28.414
188	127939	24.01	28.2784
188	128496	24.11	28.1401
188	129053	24.21	27.9998
188	129610	24.31	27.8577
188	130167	24.41	27.7142
188	130724	24.51	27.5695
188	131281	24.61	27.4239
188	131838	24.71	27.2775
188	132395	24.81	27.1304
188	132952	24.91	26.983
188	133517	25.01	26.8485
188	134074	25.11	26.7474
188	134631	25.21	26.6882
188	135188	25.31	26.6666
188	135745	25.41	26.6759
188	136302	25.51	26.7104
188	136859	25.61	26.7657
188	137416	25.71	26.8379
188	137973	25.81	26.9242
188	138530	25.91	27.0219
188	139095	26.01	27.129
188	139652	26.11	27.2438
188	140209	26.21	27.3649
188	140766	26.31	27.4912
188	141323	26.41	27.6218
188	141880	26.51	27.7559
188	142437	26.61	27.8928
188	142994	26.71	28.0321
188	143551	26.81	28.1733
188	144108	26.91	28.3161
188	144673	27.01	28.4601
188	145230	27.11	28.6053
188	145787	27.21	28.7513
188	146344	27.31	28.898
188	146901	27.41	29.0422
188	147458	27.51	29.1669
188	148015	27.61	29.2518
188	148572	27.71	29.2949
188	149129	27.81	29.3032
188	149686	27.91	29.2831
188	150251	28.01	29.2397
188	150808	28.11	29.1772
188	151365	28.21	29.0989
188	151922	28.31	29.0077
188	152479	28.41	28.906
188	153036	28.51	28.7956
188	153593	28.61	28.6781
188	154150	28.71	28.5547
188	154707	28.81	28.4266
188	155264	28.91	28.2945
188	155829	29.01	28.1592
188	156386	29.11	28.0213
188	156943	29.21	27.8812
188	157500	29.31	27.7393
188	158057	29.41	27.596
188	158614	29.51	27.4514
188	159171	29.61	27.3059
188	159728	29.71	27.1596
188	160285	29.81	27.0126
188	160842	29.91	26.8653
188	161407	30.01	26.7322
188	161964	30.11	26.6344
188	162521	30.21	26.5786
188	163078	30.31	26.5598
188	163635	30.41	26.5713
188	164192	30.51	26.6077
188	164749	30.61	26.6645
188	165306	30.71	26.738
188	165863	30.81	26.8253
188	166420	30.91	26.9238
188	166985	31.01	27.0316
188	167542	31.11	27.147
188	168099	31.21	27.2686
188	168656	31.31	27.3953
188	169213	31.41	27.5262
188	169770	31.51	27.6605
188	170327	31.61	27.7976
188	170884	31.71	27.9371
188	171441	31.81	28.0784
188	171998	31.91	28.2213
188	172563	32.01	28.3655
188	173120	32.11	28.5107
188	173677	32.21	28.6568
188	174234	32.31	28.8036
188	174791	32.41	28.949
188	175348	32.51	29.0763
188	175905	32.61	29.1649
188	176462	32.71	29.2116
188	177019	32.81	29.223
188	177576	32.91	29.2054
188	178141	33.01	29.1639
188	178698	33.11	29.103
188	179255	33.21	29.0261
188	179812	33.31	28.9361
188	180369	33.41	28.8352
188	180926	33.51	28.7256
188	181483	33.61	28.6087
188	182040	33.71	28.4858
188	182597	33.81	28.3581
188	183154	33.91	28.2264
188	183719	34.01	28.0913
188	184276	34.11	27.9536
188	184833	34.21	27.8137
188	185390	34.31	27.672
188	185947	34.41	27.5288
188	186504	34.51	27.3844
188	187061	34.61	27.2389
188	187618	34.71	27.0927
188	188175	34.81	26.9458
188	188732	34.91	26.7985
188	189297	35.01	26.6664
188	189854	35.11	26.5704
188	190411	35.21	26.5166
188	190968	35.31	26.4994
188	191525	35.41	26.5123
188	192082	35.51	26.5498
188	192639	35.61	26.6075
188	193196	35.71	26.6818
188	193753	35.81	26.7696
188	194310	35.91	26.8687
188	194875	36.01	26.9769
188	195432	36.11	27.0926
188	195989	36.21	27.2145
188	196546	36.31	27.3414
188	197103	36.41	27.4724
188	197660	36.51	27.6069
188	198217	36.61	27.7442
188	198774	36.71	27.8837
188	199331	36.81	28.0251
188	199888	36.91	28.1681
188	200453	37.01	28.3123
188	201010	37.11	28.4576
188	201567	37.21	28.6037
188	202124	37.31	28.7505
188	202681	37.41	28.8966
188	203238	37.51	29.0254
188	203795	37.61	29.1162
188	204352	37.71	29.1649
188	204909	37.81	29.1779
188	205466	37.91	29.1617
188	206031	38.01	29.1214
188	206588	38.11	29.0614
188	207145	38.21	28.9852
188	207702	38.31	28.8958
188	208259	38.41	28.7955
188	208816	38.51	28.6863
188	209373	38.61	28.5697
188	209930	38.71	28.4471
188	210487	38.81	28.3196
188	211044	38.91	28.1881
188	211609	39.01	28.0532
188	212166	39.11	27.9157
188	212723	39.21	27.7758
188	213280	39.31	27.6342
188	213837	39.41	27.4911
188	214394	39.51	27.3467
188	214951	39.61	27.2013
188	215508	39.71	27.0551
188	216065	39.81	26.9082
188	216622	39.91	26.7611
188	217187	40.01	26.6297
188	217744	40.11	26.535
188	218301	40.21	26.4824
188	218858	40.31	26.4662
188	219415	40.41	26.4799
188	219972	40.51	26.5181
188	220529	40.61	26.5763
188	221086	40.71	26.6511
188	221643	40.81	26.7393
188	222200	40.91	26.8387
188	222765	41.01	26.9472
188	223322	41.11	27.0631
188	223879	41.21	27.1851
188	224436	41.31	27.3122
188	224993	41.41	27.4434
188	225550	41.51	27.5779
188	226107	41.61	27.7153
188	226664	41.71	27.8549
188	227221	41.81	27.9963
188	227778	41.91	28.1394
188	228343	42.01	28.2836
188	228900	42.11	28.4289
188	229457	42.21	28.5751
188	230014	42.31	28.7219
188	230571	42.41	28.8683
188	231128	42.51	28.9979
188	231685	42.61	29.0898
188	232242	42.71	29.1397
188	232799	42.81	29.1536
188	233356	42.91	29.1381
188	233921	43.01	29.0984
188	234478	43.11	29.0389
188	235035	43.21	28.9632
188	235592	43.31	28.8741
188	236149	43.41	28.774
188	236706	43.51	28.665
188	237263	43.61	28.5486
188	237820	43.71	28.4262
188	238377	43.81	28.2989
188	238934	43.91	28.1674
188	239499	44.01	28.0327
188	240056	44.11	27.8951
188	240613	44.21	27.7554
188	241170	44.31	27.6138
188	241727	44.41	27.4707
188	242284	44.51	27.3264
188	242841	44.61	27.181
188	243398	44.71	27.0348
188	243955	44.81	26.8879
188	244512	44.91	26.741
188	245077	45.01	26.61
188	245634	45.11	26.516
188	246191	45.21	26.4641
188	246748	45.31	26.4485
188	247305	45.41	26.4627
188	247862	45.51	26.5012
188	248419	45.61	26.5598
188	248976	45.71	26.6348
188	249533	45.81	26.7233
188	250090	45.91	26.8228
188	250655	46.01	26.9314
188	251212	46.11	27.0475
188	251769	46.21	27.1696
188	252326	46.31	27.2967
188	252883	46.41	27.428
188	253440	46.51	27.5626
188	253997	46.61	27.7
188	254554	46.71	27.8396
188	255111	46.81	27.9812
188	255668	46.91	28.1242
188	256233	47.01	28.2685
188	256790	47.11	28.4138
188	257347	47.21	28.5599
188	257904	47.31	28.7068
188	258461	47.41	28.8534
188	259018	47.51	28.9834
188	259575	47.61	29.0759
188	260132	47.71	29.1263
188	260689	47.81	29.1407
188	261246	47.91	29.1256
188	261811	48.01	29.0863
188	262368	48.11	29.027
188	262925	48.21	28.9515
188	263482	48.31	28.8626
188	264039	48.41	28.7627
188	264596	48.51	28.6538
188	265153	48.61	28.5375
188	265710	48.71	28.4152
188	266267	48.81	28.2879
188	266824	48.91	28.1565
188	267389	49.01	28.0218
188	267946	49.11	27.8843
188	268503	49.21	27.7446
188	269060	49.31	27.603
188	269617	49.41	27.4599
188	270174	49.51	27.3156
188	270731	49.61	27.1703
188	271288	49.71	27.0241
188	271845	49.81	26.8772
188	272402	49.91	26.7303
188	272967	50.01	26.5996
188	273524	50.11	26.506
188	274081	50.21	26.4545
188	274638	50.31	26.4392
188	275195	50.41	26.4537
188	275752	50.51	26.4924
188	276309	50.61	26.5512
188	276866	50.71	26.6263
188	277423	50.81	26.7149
188	277980	50.91	26.8146
188	278545	51.01	26.9232
188	279102	51.11	27.0393
188	279659	51.21	27.1615
188	280216	51.31	27.2887
188	280773	51.41	27.42
188	281330	51.51	27.5546
188	281887	51.61	27.692
188	282444	51.71	27.8317
188	283001	51.81	27.9732
188	283558	51.91	28.1163
188	284123	52.01	28.2606
188	284680	52.11	28.4059
188	285237	52.21	28.5521
188	285794	52.31	28.6989
188	286351	52.41	28.8456
188	286908	52.51	28.9758
188	287465	52.61	29.0686
188	288022	52.71	29.1194
188	288579	52.81	29.134
188	289136	52.91	29.1191
188	289701	53.01	29.0799
188	290258	53.11	29.0208
188	290815	53.21	28.9454
188	291372	53.31	28.8566
188	291929	53.41	28.7567
188	292486	53.51	28.6479
188	293043	53.61	28.5317
188	293600	53.71	28.4094
188	294157	53.81	28.2821
188	294714	53.91	28.1508
188	295279	54.01	28.0161
188	295836	54.11	27.8786
188	296393	54.21	27.7389
188	296950	54.31	27.5973
188	297507	54.41	27.4543
188	298064	54.51	27.3099
188	298621	54.61	27.1646
188	299178	54.71	27.0184
188	299735	54.81	26.8716
188	300292	54.91	26.7247
188	300857	55.01	26.5941
188	301414	55.11	26.5008
188	301971	55.21	26.4495
188	302528	55.31	26.4344
188	303085	55.41	26.4489
188	303642	55.51	26.4878
188	304199	55.61	26.5467
188	304756	55.71	26.6219
188	305313	55.81	26.7105
188	305870	55.91	26.8102
188	306435	56.01	26.9189
188	306992	56.11	27.0351
188	307549	56.21	27.1573
188	308106	56.31	27.2845
188	308663	56.41	27.4158
188	309220	56.51	27.5505
188	309777	56.61	27.6879
188	310334	56.71	27.8276
188	310891	56.81	27.9691
188	311448	56.91	28.1121
188	312013	57.01	28.2564
188	312570	57.11	28.4018
[...]
358	325578	59.454603311347	7
358	326135	59.554594151859	7
358	326692	59.654597992203	7
358	327249	59.75460183238	7
358	327806	59.854605672389	7
358	328363	59.954596512235	7
357	1070	1.255198410977	7
357	1627	1.355189251559	7
357	2184	1.45516709214	7
357	2740	1.555222932721	7
357	3296	1.655213773302	7
357	3853	1.755178613883	7
357	4409	1.855234454463	7
357	4966	1.955186295043	7
357	5532	2.055242135623	7
357	6088	2.155245976203	7
357	6644	2.255210816782	7
357	7200	2.35516265736	7
357	7756	2.455205497937	7
357	8312	2.555261338514	7
357	8868	2.655265179091	7
357	9424	2.755230019668	7
357	9980	2.855259860245	7
357	10536	2.955263700822	7
357	11100	3.055189541399	7
357	11656	3.155167381975	7
357	12212	3.255197222551	7
357	12768	3.355201063127	7
357	13324	3.455256903703	7
357	13880	3.555221744279	7
357	14436	3.655199584854	7
357	14992	3.755216425428	7
357	15548	3.855220266002	7
357	16104	3.955263106576	7
357	16668	4.055214947149	7
357	17224	4.155257787722	7
357	17780	4.255196628295	7
357	18336	4.355200468868	7
357	18892	4.455230309441	7
357	19448	4.555260150014	7
357	20004	4.655237990586	7
357	20560	4.755202831158	7
357	21116	4.85521967173	7
357	21672	4.955236512302	7
357	22237	5.055227352873	7
357	22794	5.155192193444	7
357	23351	5.255209034027	7
357	23908	5.355238874636	7
357	24465	5.45517771529	7
357	25022	5.555220556011	7
357	25579	5.655211396812	7
357	26136	5.75518923771	7
357	26693	5.855245078715	7
357	27250	5.955248919838	7
357	27815	6.055265761084	7
357	28372	6.155165602459	7
357	28929	6.255247443969	7
357	29486	6.355238285616	7
357	30043	6.455255127402	7
357	30600	6.55516796933	7
357	31157	6.655184811401	7
357	31714	6.755214653614	7
357	32271	6.855205495969	7
357	32828	6.955248338464	7
357	33393	7.0551871811	7
357	33950	7.155243023875	7
357	34507	7.255168866788	7
357	35064	7.355224709834	7
357	35621	7.455202552997	7
357	36178	7.555167396243	7
357	36735	7.655171239532	7
357	37292	7.755253082825	7
357	37849	7.855178926088	7
357	38406	7.955221769287	7
357	38971	8.055212612396	7
357	39528	8.155216455393	7
357	40085	8.255194298261	7
357	40642	8.355237140986	7
357	41199	8.455201983556	7
357	41756	8.555192825961	7
357	42313	8.655209668194	7
357	42870	8.755252510249	7
357	43427	8.855204352121	7
357	43984	8.955182193806	7
357	44549	9.055225035305	7
357	45106	9.155163876613	7
357	45663	9.255258717728	7
357	46220	9.355262558652	7
357	46777	9.455240399385	7
357	47334	9.555218239928	7
357	47891	9.65519608028	7
357	48448	9.755173920442	7
357	49005	9.855242760418	7
357	49562	9.955168600209	7
357	50127	10.055185439816	7
357	50684	10.155202279256	7
357	51241	10.255258118559	7
357	51798	10.355235957765	7
357	52355	10.455213796913	7
357	52912	10.55519163604	7
357	53469	10.655195475181	7
357	54026	10.75526431436	7
357	54583	10.855255153602	7
357	55140	10.955219992926	7
357	55705	11.055210832345	7
357	56262	11.155227671873	7
357	56819	11.25520551152	7
357	57376	11.355183351294	7
357	57933	11.455213191201	7
357	58490	11.555191031247	7
357	59047	11.655207871436	7
357	59604	11.75525071177	7
357	60161	11.855228552251	7
357	60718	11.955193392882	7
357	61283	12.055262233662	7
357	61840	12.155201074592	7
357	62397	12.255256915673	7
357	62954	12.355234756902	7
357	63511	12.455186598271	7
357	64068	12.555242439757	7
357	64625	12.655181281323	7
357	65182	12.755237122931	7
357	65739	12.855175964543	7
357	66296	12.955244806123	7
357	66861	13.055209647645	7
357	67418	13.155226489085	7
357	67975	13.255256330424	7
357	68532	13.355208171646	7
357	69089	13.455251012736	7
357	69646	13.555215853686	7
357	70203	13.655258694489	7
357	70760	13.755223535137	7
357	71317	13.855188375625	7
357	71874	13.955244215947	7
357	72439	14.055261056103	7
357	72996	14.155238896091	7
357	73553	14.25519073591	7
357	74110	14.35523357556	7
357	74667	14.455237415038	7
357	75224	14.555228254347	7
357	75781	14.655167093487	7
357	76338	14.755183932461	7
357	76895	14.855187771268	7
357	77452	14.955191609912	7
357	78017	15.055195448399	7
357	78574	15.155238286747	7
357	79131	15.255203124991	7
357	79688	15.355180963176	7
357	80245	15.455184801339	7
357	80802	15.555240639514	7
357	81359	15.655244477733	7
357	81916	15.75519631602	7
357	82473	15.855187154397	7
357	83030	15.955164992883	7
357	83595	16.055259831489	7
357	84152	16.155224670229	7
357	84709	16.255215509111	7
357	85266	16.355180348143	7
357	85823	16.455171187329	7
357	86380	16.555240026677	7
357	86937	16.655243866187	7
357	87494	16.755182705863	7
357	88051	16.855199545706	7
357	88608	16.955203385719	7
357	89173	17.0552462259	7
357	89730	17.155198066251	7
357	90287	17.25524090677	7
357	90844	17.355192747457	7
357	91401	17.455209588306	7
357	91958	17.555187429297	7
357	92515	17.655230270397	7
357	93072	17.755169111564	7
357	93629	17.85518595276	7
357	94186	17.955254793951	7
357	94751	18.055258635107	7
357	95308	18.155223476202	7
357	95865	18.255253317215	7
357	96422	18.355205158132	7
357	96979	18.455195998938	7
357	97536	18.555225839623	7
357	98093	18.655190680175	7
357	98650	18.755246520586	7
357	99207	18.855224360854	7
357	99764	18.955254200972	7
357	100329	19.055219040939	7
357	100886	19.155235880754	7
357	101443	19.255226720415	7
357	102000	19.355243559918	7
357	102557	19.455221399265	7
357	103114	19.555264238453	7
357	103671	19.655229077487	7
357	104228	19.755245916367	7
357	104785	19.855171755092	7
357	105342	19.955201593668	7
357	105907	20.055257432101	7
357	106464	20.155261270414	7
357	107021	20.255226108642	7
357	107578	20.355177946828	7
357	108135	20.455246785008	7
357	108692	20.555198623219	7
357	109249	20.65522846149	7
357	109806	20.755180299843	7
357	110363	20.8551711383	7
357	110920	20.955252976874	7
357	111485	21.055243815583	7
357	112042	21.155195654435	7
357	112599	21.25522549344	7
357	113156	21.355255332605	7
357	113713	21.455181171934	7
357	114270	21.55519801143	7
357	114827	21.655214851099	7
357	115384	21.755192690942	7
357	115941	21.855183530961	7
357	116498	21.955187371156	7
357	117063	22.055256211527	7
357	117620	22.155195052075	7
357	118177	22.255224892799	7
357	118734	22.355215733697	7
357	119291	22.455258574764	7
357	119848	22.555210415984	7
357	120405	22.655227257324	7
357	120962	22.755244098743	7
357	121519	22.855234940203	7
357	122076	22.955212781667	7
357	122641	23.055229623104	7
357	123198	23.155207464491	7
357	123755	23.255237305803	7
357	124312	23.355176147024	7
357	124869	23.455166988138	7
357	125426	23.555248829138	7
357	125983	23.655174670009	7
357	126540	23.755191510745	7
357	127097	23.855169351342	7
357	127654	23.955199191794	7
357	128219	24.055203032098	7
357	128776	24.15519387225	7
357	129333	24.25524971225	7
357	129890	24.355188552098	7
357	130447	24.45520539179	7
357	131004	24.55524823133	7
357	131561	24.655252070716	7
357	132118	24.755203909948	7
357	132675	24.85519474903	7
357	133232	24.955172587962	7
357	133797	25.055189426753	7
357	134354	25.15524526543	7
357	134911	25.25518410403	7
357	135468	25.355174942592	7
357	136025	25.455243781155	7
357	136582	25.555208619753	7
357	137139	25.655251458413	7
357	137696	25.75521629716	7
357	138253	25.855259136012	7
357	138810	25.955262974988	7
357	139375	26.055175814097	7
357	139932	26.155205653351	7
357	140489	26.255261492758	7
357	141046	26.355226332325	7
357	141603	26.455178172057	7
357	142160	26.555169011957	7
357	142717	26.655211852029	7
357	143274	26.755202692276	7
357	143831	26.855206532697	7
357	144388	26.955262373293	7
357	144953	27.055214214063	7
357	145510	27.15517905501	7
357	146067	27.255169896131	7
357	146624	27.355199737425	7
357	147181	27.455203578889	7
357	147738	27.555207420506	7
357	148295	27.655185262246	7
357	148852	27.755215104071	7
357	149409	27.855231945939	7
357	149966	27.955222787814	7
357	150531	28.055187629665	7
357	151088	28.155230471465	7
357	151645	28.255182313192	7
357	152202	28.355251154828	7
357	152759	28.455241996357	7
357	153316	28.55521983777	7
357	153873	28.655249679055	7
357	154430	28.755175520202	7
357	154987	28.85520536121	7
357	155544	28.955209202069	7
357	156109	29.055187042781	7
357	156666	29.15516488334	7
357	157223	29.255194723744	7
357	157780	29.355250563991	7
357	158337	29.455228404082	7
357	158894	29.555232244017	7
357	159451	29.655171083796	7
357	160008	29.75525292342	7
357	160565	29.855217762891	7
357	161122	29.955247602207	7
357	161687	30.055186441383	7
357	162244	30.155242280444	7
357	162801	30.255233119428	7
357	163358	30.355262958375	7
357	163915	30.455175797321	7
357	164472	30.555179636301	7
357	165029	30.655222475345	7
357	165586	30.755187314474	7
357	166143	30.855243153706	7
357	166700	30.955259993058	7
357	167265	31.055198832541	7
357	167822	31.155215672168	7
357	168379	31.255245511946	7
357	168936	31.355262351881	7
357	169493	31.455175191978	7
357	170050	31.555231032241	7
357	170607	31.655208872672	7
357	171164	31.755225713274	7
357	171721	31.855164554047	7
357	172278	31.955168394993	7
357	172843	32.055237236111	7
357	173400	32.155254077403	7
357	173957	32.255244918865	7
357	174514	32.355196760497	7
357	175071	32.455174602294	7
357	175628	32.555230444246	7
357	176185	32.655208286319	7
357	176742	32.755186128477	7
357	177299	32.855228970678	7
357	177856	32.955258812886	7
357	178421	33.055184655069	7
357	178978	33.155253497199	7
357	179535	33.255231339254	7
357	180092	33.355261181216	7
357	180649	33.45517402307	7
357	181206	33.555255864803	7
357	181763	33.655259706406	7
357	182320	33.75521154787	7
357	182877	33.855215389192	7
357	183434	33.955193230362	7
357	183999	34.05521007138	7
357	184556	34.155187912243	7
357	185113	34.255230752948	7
357	185670	34.355169593493	7
357	186227	34.455212433877	7
357	186784	34.555203274101	7
357	187341	34.655168114167	7
357	187898	34.755236954074	7
357	188455	34.855201793824	7
357	189012	34.955166633417	7
357	189577	35.055170472866	7
357	190134	35.155187312199	7
357	190691	35.255165151454	7
357	191248	35.355246990669	7
357	191805	35.455250829883	7
357	192362	35.55521566913	7
357	192919	35.655258508437	7
357	193476	35.755262347826	7
357	194033	35.855266187316	7
357	194590	35.955244026922	7
357	195155	36.055260866659	7
357	195712	36.155199706536	7
357	196269	36.255190546561	7
357	196826	36.355168386741	7
357	197383	36.455211227079	7
357	197940	36.555241067581	7
357	198497	36.655205908248	7
357	199054	36.755248749084	7
357	199611	36.855174590087	7
357	200168	36.95520443126	7
357	200733	37.055195272603	7
357	201290	37.155225114114	7
357	201847	37.255241955794	7
357	202404	37.355232797641	7
357	202961	37.455249639652	7
357	203518	37.555227481815	7
357	204075	37.655205324099	7
357	204632	37.755248166466	7
357	205189	37.855187008878	7
357	205746	37.955229851295	7
357	206311	38.055168693684	7
357	206868	38.155224536018	7
357	207425	38.255189378277	7
357	207982	38.355206220439	7
357	208539	38.455249062491	7
357	209096	38.555239904421	7
357	209653	38.655204746219	7
357	210210	38.755169587876	7
357	210767	38.855212429385	7
357	211324	38.955229270743	7
357	211889	39.055181111946	7
357	212446	39.155262952989	7
357	213003	39.255214793874	7
357	213560	39.355257634597	7
357	214117	39.455222475157	7
357	214674	39.555239315555	7
357	215231	39.655191155791	7
357	215788	39.755220995865	7
357	216345	39.855250835779	7
357	216902	39.955189675535	7
357	217467	40.055258515144	7
357	218024	40.155236354636	7
357	218581	40.255188194047	7
357	219138	40.355218033417	7
357	219695	40.455208872787	7
357	220252	40.555186712186	7
357	220809	40.655255551644	7
357	221366	40.755181391184	7
357	221923	40.855198230823	7
357	222480	40.955215070578	7
357	223045	41.055205910462	7
357	223602	41.155222750483	7
357	224159	41.255226590652	7
357	224716	41.355217430972	7
357	225273	41.455208271448	7
357	225830	41.555173112087	7
357	226387	41.65517695289	7
357	226944	41.755258793858	7
357	227501	41.855171634993	7
357	228058	41.955227476294	7
357	228623	42.055231317764	7
357	229180	42.155261159399	7
357	229737	42.255239001202	7
357	230294	42.355255843171	7
357	230851	42.455207685301	7
357	231408	42.555237527581	7
357	231965	42.655254369983	7
357	232522	42.755245212468	7
357	233079	42.855184054996	7
357	233636	42.955239897528	7
357	234201	43.055230740032	7
357	234758	43.155195582482	7
357	235315	43.255251424853	7
357	235872	43.355190267128	7
357	236429	43.455194109293	7
357	236986	43.555236951333	7
357	237543	43.655175793237	7
357	238100	43.755205635	7
357	238657	43.855170476614	7
357	239214	43.955252318076	7
357	239779	44.055204159381	7
357	240336	44.155195000525	7
357	240893	44.255263841508	7
357	241450	44.355254682329	7
357	242007	44.455258522984	7
357	242564	44.555249363476	7
357	243121	44.655214203805	7
357	243678	44.755205043971	7
357	244235	44.855221883974	7
357	244792	44.955212723819	7
357	245357	45.055242563515	7
357	245914	45.155181403093	7
357	246471	45.255185242588	7
357	247028	45.355189082044	7
357	247585	45.455205921495	7
357	248142	45.555261760978	7
357	248699	45.655252600516	7
357	249256	45.755204440134	7
357	249813	45.855169279851	7
357	250370	45.955264119683	7
357	250935	46.055202959641	7
357	251492	46.155219799735	7
357	252049	46.255184639973	7
357	252606	46.355214480363	7
357	253163	46.455218320908	7
357	253720	46.555196161612	7
357	254277	46.655226002478	7
357	254834	46.755203843507	7
357	255391	46.855168684703	7
357	255948	46.955263526063	7
357	256513	47.055228367589	7
357	257070	47.15521920928	7
357	257627	47.255249051135	7
357	258184	47.355200893155	7
357	258741	47.455191735334	7
357	259298	47.555247577663	7
357	259855	47.655251420112	7
357	260412	47.755190262643	7
357	260969	47.855181105214	7
357	261526	47.955223947788	7
357	262091	48.055240790333	7
357	262648	48.155231632822	7
357	263205	48.255170475231	7
357	263762	48.355239317544	7
357	264319	48.455204159744	7
357	264876	48.555182001817	7
357	265433	48.655263843756	7
357	265990	48.75517668555	7
357	266547	48.855206527195	7
357	267104	48.955197368685	7
357	267669	49.055253210017	7
357	268226	49.155205051188	7
357	268783	49.255247892195	7
357	269340	49.355264733037	7
357	269897	49.455190573715	7
357	270454	49.555220414229	7
357	271011	49.655211254576	7
357	271568	49.755228094759	7
357	272125	49.85520593478	7
357	272682	49.955183774639	7
357	273247	50.055265614349	7
357	273804	50.155191453939	7
357	274361	50.255234293444	7
357	274918	50.35518613291	7
357	275475	50.45522897237	7
357	276032	50.555245811859	7
357	276589	50.655197651404	7
357	277146	50.755214491028	7
357	277703	50.855205330749	7
357	278260	50.955196170582	7
357	278825	51.055265010541	7
357	279382	51.155164850633	7
357	279939	51.255259690869	7
357	280496	51.355172531255	7
357	281053	51.455202371795	7
357	281610	51.555167212494	7
357	282167	51.655210053353	7
357	282724	51.755265894376	7
357	283281	51.85524373556	7
357	283838	51.95516957691	7
357	284403	52.055251418423	7
357	284960	52.155229260103	7
357	285517	52.255233101945	7
357	286074	52.355236943949	7
357	286631	52.455175786112	7
357	287188	52.555179628424	7
357	287745	52.655235470853	7
357	288302	52.755174313363	7
357	288859	52.855165155913	7
357	289416	52.955181998465	7
357	289981	53.055198840989	7
357	290538	53.155241683454	7
357	291095	53.25523252584	7
357	291652	53.355184368127	7
357	292209	53.455227210298	7
357	292766	53.555166052344	7
357	293323	53.655195894253	7
357	293880	53.755238736017	7
357	294437	53.855164577631	7
357	294994	53.95520741909	7
357	295559	54.055172260388	7
357	296116	54.155241101523	7
357	296673	54.255192942494	7
357	297230	54.355196783299	7
357	297787	54.455252623938	7
357	298344	54.555204464411	7
357	298901	54.65523430472	7
357	299458	54.755251144864	7
357	300015	54.855163984843	7
357	300572	54.95521982466	7
357	301137	55.055210664326	7
357	301694	55.15521450387	7
357	302251	55.255257343334	7
357	302808	55.355248182754	7
357	303365	55.455200022169	7
357	303922	55.555242861611	7
357	304479	55.655246701108	7
357	305036	55.755224540683	7
357	305593	55.855241380356	7
357	306150	55.95525822014	7
357	306715	56.055197060048	7
357	307272	56.15521390009	7
357	307829	56.255243740276	7
357	308386	56.355260580609	7
357	308943	56.455264421096	7
357	309500	56.555242261741	7
357	310057	56.655181102546	7
357	310614	56.755262943512	7
357	311171	56.855240784641	7
357	311728	56.955231625934	7
357	312293	57.055222467391	7
357	312850	57.155187309011	7
357	313407	57.255243150794	7
357	313964	57.355194992738	7
357	314521	57.45523783484	7
357	315078	57.555189677092	7
357	315635	57.65516751946	7
357	316192	57.755262361909	7
357	316749	57.855253204397	7
357	317306	57.955244046888	7
357	317871	58.055195889348	7
357	318428	58.15518673175	7
357	318985	58.255216574073	7
357	319542	58.355168416294	7
357	320099	58.455224258402	7
357	320656	58.555176100383	7
357	321213	58.655179942225	7
357	321770	58.755196783923	7
357	322327	58.855174625468	7
357	322884	58.955230466859	7
357	323449	59.05524730809	7
357	324006	59.155186149159	7
357	324563	59.255202990062	7
357	325120	59.355245830799	7
357	325677	59.455197671369	7
357	326234	59.555227511773	7
357	326791	59.65523135201	7
357	327348	59.755183192082	7
357	327905	59.855265031988	7
357	328462	59.955216871735	7
356	5115	2	0
356	10685	3	0
356	16253	4	0
356	21822	5	0
356	27399	6	0
356	32977	7	0
356	38555	8	0
356	44133	9	0
356	49711	10	0
356	55289	11	0
356	60867	12	0
356	66445	13	0
356	72023	14	0
356	77601	15	0
356	83179	16	0
356	88757	17	0
356	94335	18	0
356	99913	19	0
356	105491	20	0
356	111069	21	0
356	116647	22	0
356	122225	23	0
356	127803	24	0
356	133381	25	0
356	138959	26	0
356	144537	27	0
356	150115	28	0
356	155693	29	0
356	161271	30	0
356	166849	31	0
356	172427	32	0
356	178005	33	0
356	183583	34	0
356	189161	35	0
356	194739	36	0
356	200317	37	0
356	205895	38	0
356	211473	39	0
356	217051	40	0
356	222629	41	0
356	228207	42	0
356	233785	43	0
356	239363	44	0
356	244941	45	0
356	250519	46	0
356	256097	47	0
356	261675	48	0
356	267253	49	0
356	272831	50	0
356	278409	51	0
356	283987	52	0
356	289565	53	0
356	295143	54	0
356	300721	55	0
356	306299	56	0
356	311877	57	0
356	317455	58	0
356	323033	59	0
356	328611	60	0
355	5115	2	0.034729
355	10685	3	0.03969
355	16253	4	0.03969
355	21822	5	0.03969
355	27399	6	0.03969
355	32977	7	0.03969
355	38555	8	0.03969
355	44133	9	0.03969
355	49711	10	0.03969
355	55289	11	0.03969
355	60867	12	0.03969
355	66445	13	0.03969
355	72023	14	0.03969
355	77601	15	0.03969
355	83179	16	0.03969
355	88757	17	0.03969
355	94335	18	0.03969
355	99913	19	0.03969
355	105491	20	0.03969
355	111069	21	0.03969
355	116647	22	0.03969
355	122225	23	0.03969
355	127803	24	0.03969
355	133381	25	0.03969
355	138959	26	0.03969
355	144537	27	0.03969
355	150115	28	0.03969
355	155693	29	0.03969
355	161271	30	0.03969
355	166849	31	0.03969
355	172427	32	0.03969
355	178005	33	0.03969
355	183583	34	0.03969
355	189161	35	0.03969
355	194739	36	0.03969
355	200317	37	0.03969
355	205895	38	0.03969
355	211473	39	0.03969
355	217051	40	0.03969
355	222629	41	0.03969
355	228207	42	0.03969
355	233785	43	0.03969
355	239363	44	0.03969
355	244941	45	0.03969
355	250519	46	0.03969
355	256097	47	0.03969
355	261675	48	0.03969
355	267253	49	0.03969
355	272831	50	0.03969
355	278409	51	0.03969
355	283987	52	0.03969
355	289565	53	0.03969
355	295143	54	0.03969
355	300721	55	0.03969
355	306299	56	0.03969
355	311877	57	0.03969
355	317455	58	0.03969
355	323033	59	0.03969
355	328611	60	0.03969
354	5115	2	7
354	10685	3	7
354	16253	4	7
354	21822	5	7
354	27399	6	7
354	32977	7	7
354	38555	8	7
354	44133	9	7
354	49711	10	7
354	55289	11	7
354	60867	12	7
354	66445	13	7
354	72023	14	7
354	77601	15	7
354	83179	16	7
354	88757	17	7
354	94335	18	7
354	99913	19	7
354	105491	20	7
354	111069	21	7
354	116647	22	7
354	122225	23	7
354	127803	24	7
354	133381	25	7
354	138959	26	7
354	144537	27	7
354	150115	28	7
354	155693	29	7
354	161271	30	7
354	166849	31	7
354	172427	32	7
354	178005	33	7
354	183583	34	7
354	189161	35	7
354	194739	36	7
354	200317	37	7
354	205895	38	7
354	211473	39	7
354	217051	40	7
354	222629	41	7
354	228207	42	7
354	233785	43	7
354	239363	44	7
354	244941	45	7
354	250519	46	7
354	256097	47	7
354	261675	48	7
354	267253	49	7
354	272831	50	7
354	278409	51	7
354	283987	52	7
354	289565	53	7
354	295143	54	7
354	300721	55	7
354	306299	56	7
354	311877	57	7
354	317455	58	7
354	323033	59	7
354	328611	60	7
