version 2
run SinusoidalActDelayNoGui-2-20210427-18:08:08-5302
attr actDelay 1
attr beaconInterval 0.1
attr configname SinusoidalActDelayNoGui
attr controller 1
attr datetime 20210427-18:08:08
attr experiment SinusoidalActDelayNoGui
attr headway 0.1
attr inifile omnetpp.ini
attr iterationvars "$actDelay=1, $packetLossRate=0, $beaconInterval=0.1, $controller=1, $sController=\"CACC\", $headway=0.1, $0=5, $1=0, $nCars=8, $platoonSize=8, $nLanes=1, $ploegH=0.5, $leaderHeadway=1.2, $leaderSpeed=100, $packetSize=200"
attr iterationvarsf actDelay=1,packetLossRate=0,beaconInterval=0.1,controller=1,sController=CACC,headway=0.1,5,0,nCars=8,platoonSize=8,nLanes=1,ploegH=0.5,leaderHeadway=1.2,leaderSpeed=100,packetSize=200-
attr leaderHeadway 1.2
attr leaderSpeed 100
attr measurement "$actDelay=1, $packetLossRate=0, $beaconInterval=0.1, $controller=1, $sController=\"CACC\", $headway=0.1, $0=5, $1=0, $nCars=8, $platoonSize=8, $nLanes=1, $ploegH=0.5, $leaderHeadway=1.2, $leaderSpeed=100, $packetSize=200"
attr nCars 8
attr nLanes 1
attr network Highway
attr packetLossRate 0
attr packetSize 200
attr platoonSize 8
attr ploegH 0.5
attr processid 5302
attr repetition 0
attr replication #0
attr resultdir results
attr runnumber 2
attr sController "\"CACC\""
attr seedset 0
param **.coreDebug false
param **.debug false
param **.headway 0.1s
param **.numberOfCars 8
param **.numberOfCarsPerPlatoon 8
param **.numberOfLanes 1
param **.numericController 1
param **.seed 0
param **.traffic.nCars 8
param **.traffic.nLanes 1
param **.traffic.platoonInsertDistance 5m
param **.traffic.platoonInsertHeadway 0s
param **.traffic.platoonInsertSpeed 100kmph
param **.traffic.platoonInsertTime "1 s"
param **.traffic.platoonLeaderHeadway 1.2s
param **.traffic.platoonSize 8
param **.traffic.platooningVType "\"vtypeauto\""
param **.traffic_type "\"PlatoonsTrafficManager\""
param *.**.nic.mac1609_4.bitrate 6Mbps
param *.**.nic.mac1609_4.txPower "100 mW"
param *.**.nic.mac1609_4.useServiceChannel false
param *.**.nic.phy80211p.analogueModels "xmldoc(\"config.xml\")"
param *.**.nic.phy80211p.decider "xmldoc(\"config.xml\")"
param *.**.nic.phy80211p.maxTXPower "100 mW"
param *.**.nic.phy80211p.sensitivity -94dBm
param *.**.nic.phy80211p.thermalNoise "-95 dBm"
param *.**.nic.phy80211p.usePropagationDelay true
param *.**.nic.phy80211p.useThermalNoise true
param *.annotations.draw false
param *.connectionManager.drawMaxIntfDist false
param *.connectionManager.maxInterfDist 2600m
param *.connectionManager.sendDirect true
param *.manager.autoShutdown true
param *.manager.configFile "\"./sumocfg/freeway.sumo.cfg\""
param *.manager.host "\"localhost\""
param *.manager.margin 25
param *.manager.moduleDisplayString "\"\""
param *.manager.moduleName "\"node\""
param *.manager.moduleType "\"org.car2x.veins.modules.application.platooning.PlatoonCar\""
param *.manager.updateInterval 0.01s
param *.manager.useGui true
param *.node[*].appl_type "\"SimplePlatooningApp\""
param *.node[*].helper.nCars 8
param *.node[*].helper.nLanes 1
param *.node[*].helper.platoonSize 8
param *.node[*].helper_type "\"PositionHelper\""
param *.node[*].mobility.x 0
param *.node[*].mobility.y 0
param *.node[*].mobility.z 1.895
param *.node[*].prot.beaconingInterval 0.1s
param *.node[*].prot.packetSize 200
param *.node[*].prot.priority 4
param *.node[*].protocol_type "\"SimplePlatooningBeaconing\""
param *.node[*].scenario.accHeadway 0.1s
param *.node[*].scenario.caccC1 0.5
param *.node[*].scenario.caccOmegaN "0.2 Hz"
param *.node[*].scenario.caccXi 1
param *.node[*].scenario.controller "\"CACC\""
param *.node[*].scenario.engineTau 1s
param *.node[*].scenario.leaderHeadway 1.2s
param *.node[*].scenario.leaderOscillationFrequency "0.2 Hz"
param *.node[*].scenario.leaderSpeed 100kmph
param *.node[*].scenario.oscillationAmplitude "35 kmph"
param *.node[*].scenario.ploegH 0.5s
param *.node[*].scenario.ploegKd 0.7
param *.node[*].scenario.ploegKp 0.2
param *.node[*].scenario.startOscillating "5 s"
param *.node[*].scenario.useControllerAcceleration true
param *.node[*].scenario.useRealisticEngine false
param *.node[*].scenario_type "\"SinusoidalScenario\""
param *.node[*].unicast.packetLossRate 0
param *.obstacles.debug false
param *.playgroundSizeX 65000m
param *.playgroundSizeY 25000m
param *.playgroundSizeZ 50m
param *.world.use2D false
param *.world.useTorus false

vector 369  Highway.node[0].appl  distance  ETV
vector 370  Highway.node[0].appl  relativeSpeed  ETV
vector 371  Highway.node[0].appl  nodeId  ETV
vector 375  Highway.node[0].appl  acceleration  ETV
vector 376  Highway.node[0].appl  controllerAcceleration  ETV
vector 372  Highway.node[0].appl  speed  ETV
vector 373  Highway.node[0].appl  posx  ETV
vector 374  Highway.node[0].appl  posy  ETV
vector 392  Highway.node[1].appl  distance  ETV
vector 393  Highway.node[1].appl  relativeSpeed  ETV
vector 394  Highway.node[1].appl  nodeId  ETV
vector 398  Highway.node[1].appl  acceleration  ETV
vector 399  Highway.node[1].appl  controllerAcceleration  ETV
vector 395  Highway.node[1].appl  speed  ETV
vector 396  Highway.node[1].appl  posx  ETV
vector 397  Highway.node[1].appl  posy  ETV
vector 415  Highway.node[2].appl  distance  ETV
vector 416  Highway.node[2].appl  relativeSpeed  ETV
vector 417  Highway.node[2].appl  nodeId  ETV
vector 421  Highway.node[2].appl  acceleration  ETV
vector 422  Highway.node[2].appl  controllerAcceleration  ETV
vector 418  Highway.node[2].appl  speed  ETV
vector 419  Highway.node[2].appl  posx  ETV
vector 420  Highway.node[2].appl  posy  ETV
vector 438  Highway.node[3].appl  distance  ETV
vector 439  Highway.node[3].appl  relativeSpeed  ETV
vector 440  Highway.node[3].appl  nodeId  ETV
vector 444  Highway.node[3].appl  acceleration  ETV
vector 445  Highway.node[3].appl  controllerAcceleration  ETV
vector 441  Highway.node[3].appl  speed  ETV
vector 442  Highway.node[3].appl  posx  ETV
vector 443  Highway.node[3].appl  posy  ETV
vector 461  Highway.node[4].appl  distance  ETV
vector 462  Highway.node[4].appl  relativeSpeed  ETV
vector 463  Highway.node[4].appl  nodeId  ETV
vector 467  Highway.node[4].appl  acceleration  ETV
vector 468  Highway.node[4].appl  controllerAcceleration  ETV
vector 464  Highway.node[4].appl  speed  ETV
vector 465  Highway.node[4].appl  posx  ETV
vector 466  Highway.node[4].appl  posy  ETV
vector 484  Highway.node[5].appl  distance  ETV
vector 485  Highway.node[5].appl  relativeSpeed  ETV
vector 486  Highway.node[5].appl  nodeId  ETV
vector 490  Highway.node[5].appl  acceleration  ETV
vector 491  Highway.node[5].appl  controllerAcceleration  ETV
vector 487  Highway.node[5].appl  speed  ETV
vector 488  Highway.node[5].appl  posx  ETV
vector 489  Highway.node[5].appl  posy  ETV
vector 507  Highway.node[6].appl  distance  ETV
vector 508  Highway.node[6].appl  relativeSpeed  ETV
vector 509  Highway.node[6].appl  nodeId  ETV
vector 513  Highway.node[6].appl  acceleration  ETV
vector 514  Highway.node[6].appl  controllerAcceleration  ETV
vector 510  Highway.node[6].appl  speed  ETV
vector 511  Highway.node[6].appl  posx  ETV
vector 512  Highway.node[6].appl  posy  ETV
vector 530  Highway.node[7].appl  distance  ETV
vector 531  Highway.node[7].appl  relativeSpeed  ETV
vector 532  Highway.node[7].appl  nodeId  ETV
vector 536  Highway.node[7].appl  acceleration  ETV
vector 537  Highway.node[7].appl  controllerAcceleration  ETV
vector 533  Highway.node[7].appl  speed  ETV
vector 534  Highway.node[7].appl  posx  ETV
vector 535  Highway.node[7].appl  posy  ETV
vector 452  Highway.node[3].prot  frontDelay  ETV
vector 450  Highway.node[3].prot  frontDelayId  ETV
vector 429  Highway.node[2].prot  frontDelay  ETV
vector 427  Highway.node[2].prot  frontDelayId  ETV
vector 544  Highway.node[7].prot  frontDelay  ETV
vector 542  Highway.node[7].prot  frontDelayId  ETV
vector 405  Highway.node[1].prot  leaderDelay  ETV
vector 403  Highway.node[1].prot  leaderDelayId  ETV
vector 406  Highway.node[1].prot  frontDelay  ETV
vector 404  Highway.node[1].prot  frontDelayId  ETV
vector 428  Highway.node[2].prot  leaderDelay  ETV
vector 426  Highway.node[2].prot  leaderDelayId  ETV
vector 451  Highway.node[3].prot  leaderDelay  ETV
vector 449  Highway.node[3].prot  leaderDelayId  ETV
vector 474  Highway.node[4].prot  leaderDelay  ETV
vector 472  Highway.node[4].prot  leaderDelayId  ETV
vector 497  Highway.node[5].prot  leaderDelay  ETV
vector 495  Highway.node[5].prot  leaderDelayId  ETV
vector 520  Highway.node[6].prot  leaderDelay  ETV
vector 518  Highway.node[6].prot  leaderDelayId  ETV
vector 543  Highway.node[7].prot  leaderDelay  ETV
vector 541  Highway.node[7].prot  leaderDelayId  ETV
vector 498  Highway.node[5].prot  frontDelay  ETV
vector 496  Highway.node[5].prot  frontDelayId  ETV
vector 475  Highway.node[4].prot  frontDelay  ETV
vector 473  Highway.node[4].prot  frontDelayId  ETV
vector 521  Highway.node[6].prot  frontDelay  ETV
vector 519  Highway.node[6].prot  frontDelayId  ETV
vector 377  Highway.node[0].prot  nodeId  ETV
vector 378  Highway.node[0].prot  busyTime  ETV
vector 379  Highway.node[0].prot  collisions  ETV
vector 400  Highway.node[1].prot  nodeId  ETV
vector 401  Highway.node[1].prot  busyTime  ETV
vector 402  Highway.node[1].prot  collisions  ETV
vector 423  Highway.node[2].prot  nodeId  ETV
vector 424  Highway.node[2].prot  busyTime  ETV
vector 425  Highway.node[2].prot  collisions  ETV
vector 446  Highway.node[3].prot  nodeId  ETV
vector 447  Highway.node[3].prot  busyTime  ETV
vector 448  Highway.node[3].prot  collisions  ETV
vector 469  Highway.node[4].prot  nodeId  ETV
vector 470  Highway.node[4].prot  busyTime  ETV
vector 471  Highway.node[4].prot  collisions  ETV
vector 492  Highway.node[5].prot  nodeId  ETV
vector 493  Highway.node[5].prot  busyTime  ETV
vector 494  Highway.node[5].prot  collisions  ETV
vector 515  Highway.node[6].prot  nodeId  ETV
vector 516  Highway.node[6].prot  busyTime  ETV
vector 517  Highway.node[6].prot  collisions  ETV
vector 538  Highway.node[7].prot  nodeId  ETV
vector 539  Highway.node[7].prot  busyTime  ETV
vector 540  Highway.node[7].prot  collisions  ETV
376	233	1.11	-0.00219234
376	790	1.21	-0.00216486
376	1346	1.31	-0.00211949
376	1903	1.41	-0.00205837
376	2460	1.51	-0.00198355
376	3016	1.61	-0.00189705
376	3572	1.71	-0.00180079
376	4129	1.81	-0.0016966
376	4685	1.91	-0.00158622
376	5252	2.01	-0.00147129
376	5808	2.11	-0.00135332
376	6364	2.21	-0.00123372
376	6920	2.31	-0.00111377
376	7476	2.41	-0.000994637
376	8032	2.51	-0.000877377
376	8588	2.61	-0.00076292
376	9144	2.71	-0.000652084
376	9700	2.81	-0.000545574
376	10256	2.91	-0.000443989
376	10820	3.01	-0.000347824
376	11376	3.11	-0.000257475
376	11932	3.21	-0.000173247
376	12488	3.31	-9.53567e-05
376	13044	3.41	-2.39412e-05
376	13600	3.51	4.09368e-05
376	14156	3.61	9.92826e-05
376	14712	3.71	0.000151163
376	15268	3.81	0.000196699
376	15824	3.91	0.00023606
376	16388	4.01	0.00026946
376	16944	4.11	0.000297146
376	17500	4.21	0.000319398
376	18056	4.31	0.000336519
376	18612	4.41	0.000348835
376	19168	4.51	0.000356683
376	19724	4.61	0.000360411
376	20280	4.71	0.000360377
376	20836	4.81	0.000356934
376	21392	4.91	0.00035044
376	21957	5.01	0.000341245
376	22514	5.11	1.21883
376	23071	5.21	1.5
376	23628	5.31	1.5
376	24185	5.41	1.5
376	24742	5.51	1.5
376	25299	5.61	1.5
376	25856	5.71	1.5
376	26413	5.81	1.5
376	26970	5.91	1.5
376	27535	6.01	1.5
376	28092	6.11	1.5
376	28649	6.21	1.5
376	29206	6.31	1.5
376	29763	6.41	1.5
376	30320	6.51	1.5
376	30877	6.61	1.5
376	31434	6.71	1.5
376	31991	6.81	1.5
376	32548	6.91	1.5
376	33113	7.01	1.5
376	33670	7.11	1.5
376	34227	7.21	1.5
376	34784	7.31	0.474982
376	35341	7.41	-0.852463
376	35898	7.51	-1.5
376	36455	7.61	-1.5
376	37012	7.71	-1.5
376	37569	7.81	-1.5
376	38126	7.91	-1.5
376	38691	8.01	-1.5
376	39248	8.11	-1.5
376	39805	8.21	-1.5
376	40362	8.31	-1.5
376	40919	8.41	-1.5
376	41476	8.51	-1.5
376	42033	8.61	-1.5
376	42590	8.71	-1.5
376	43147	8.81	-1.5
376	43704	8.91	-1.5
376	44269	9.01	-1.5
376	44826	9.11	-1.5
376	45383	9.21	-1.5
376	45940	9.31	-1.5
376	46497	9.41	-1.5
376	47054	9.51	-1.5
376	47611	9.61	-1.5
376	48168	9.71	-1.5
376	48725	9.81	-1.5
376	49282	9.91	-1.5
376	49847	10.01	-0.761651
376	50404	10.11	0.582758
376	50961	10.21	1.5
376	51518	10.31	1.5
376	52075	10.41	1.5
376	52632	10.51	1.5
376	53189	10.61	1.5
376	53746	10.71	1.5
376	54303	10.81	1.5
376	54860	10.91	1.5
376	55425	11.01	1.5
376	55982	11.11	1.5
376	56539	11.21	1.5
376	57096	11.31	1.5
376	57653	11.41	1.5
376	58210	11.51	1.5
376	58767	11.61	1.5
376	59324	11.71	1.5
376	59881	11.81	1.5
376	60438	11.91	1.5
376	61003	12.01	1.5
376	61560	12.11	1.5
376	62117	12.21	1.5
376	62674	12.31	0.985738
376	63231	12.41	-0.330693
376	63788	12.51	-1.5
376	64345	12.61	-1.5
376	64902	12.71	-1.5
376	65459	12.81	-1.5
376	66016	12.91	-1.5
376	66581	13.01	-1.5
376	67138	13.11	-1.5
376	67695	13.21	-1.5
376	68252	13.31	-1.5
376	68809	13.41	-1.5
376	69366	13.51	-1.5
376	69923	13.61	-1.5
376	70480	13.71	-1.5
376	71037	13.81	-1.5
376	71594	13.91	-1.5
376	72159	14.01	-1.5
376	72716	14.11	-1.5
376	73273	14.21	-1.5
376	73830	14.31	-1.5
376	74387	14.41	-1.5
376	74944	14.51	-1.5
376	75501	14.61	-1.5
376	76058	14.71	-1.5
376	76615	14.81	-1.5
376	77172	14.91	-1.5
376	77737	15.01	-0.212067
376	78294	15.11	1.12949
376	78851	15.21	1.5
376	79408	15.31	1.5
376	79965	15.41	1.5
376	80522	15.51	1.5
376	81079	15.61	1.5
376	81636	15.71	1.5
376	82193	15.81	1.5
376	82750	15.91	1.5
376	83315	16.01	1.5
376	83872	16.11	1.5
376	84429	16.21	1.5
376	84986	16.31	1.5
376	85543	16.41	1.5
376	86100	16.51	1.5
376	86657	16.61	1.5
376	87214	16.71	1.5
376	87771	16.81	1.5
376	88328	16.91	1.5
376	88893	17.01	1.5
376	89450	17.11	1.5
376	90007	17.21	1.5
376	90564	17.31	1.43878
376	91121	17.41	0.11881
376	91678	17.51	-1.21507
376	92235	17.61	-1.5
376	92792	17.71	-1.5
376	93349	17.81	-1.5
376	93906	17.91	-1.5
376	94471	18.01	-1.5
376	95028	18.11	-1.5
376	95585	18.21	-1.5
376	96142	18.31	-1.5
376	96699	18.41	-1.5
376	97256	18.51	-1.5
376	97813	18.61	-1.5
376	98370	18.71	-1.5
376	98927	18.81	-1.5
376	99484	18.91	-1.5
376	100049	19.01	-1.5
376	100606	19.11	-1.5
376	101163	19.21	-1.5
376	101720	19.31	-1.5
376	102277	19.41	-1.5
376	102834	19.51	-1.5
376	103391	19.61	-1.5
376	103948	19.71	-1.5
376	104505	19.81	-1.5
376	105062	19.91	-1.22085
376	105627	20.01	0.123107
376	106184	20.11	1.45911
376	106741	20.21	1.5
376	107298	20.31	1.5
376	107855	20.41	1.5
376	108412	20.51	1.5
376	108969	20.61	1.5
376	109526	20.71	1.5
376	110083	20.81	1.5
376	110640	20.91	1.5
376	111205	21.01	1.5
376	111762	21.11	1.5
376	112319	21.21	1.5
376	112876	21.31	1.5
376	113433	21.41	1.5
376	113990	21.51	1.5
376	114547	21.61	1.5
376	115104	21.71	1.5
376	115661	21.81	1.5
376	116218	21.91	1.5
376	116783	22.01	1.5
376	117340	22.11	1.5
376	117897	22.21	1.5
376	118454	22.31	1.5
376	119011	22.41	0.359217
376	119568	22.51	-0.977938
376	120125	22.61	-1.5
376	120682	22.71	-1.5
376	121239	22.81	-1.5
376	121796	22.91	-1.5
376	122361	23.01	-1.5
376	122918	23.11	-1.5
376	123475	23.21	-1.5
376	124032	23.31	-1.5
376	124589	23.41	-1.5
376	125146	23.51	-1.5
376	125703	23.61	-1.5
376	126260	23.71	-1.5
376	126817	23.81	-1.5
376	127374	23.91	-1.5
376	127939	24.01	-1.5
376	128496	24.11	-1.5
376	129053	24.21	-1.5
376	129610	24.31	-1.5
376	130167	24.41	-1.5
376	130724	24.51	-1.5
376	131281	24.61	-1.5
376	131838	24.71	-1.5
376	132395	24.81	-1.5
376	132952	24.91	-1.04294
376	133517	25.01	0.299501
376	134074	25.11	1.5
376	134631	25.21	1.5
376	135188	25.31	1.5
376	135745	25.41	1.5
376	136302	25.51	1.5
376	136859	25.61	1.5
376	137416	25.71	1.5
376	137973	25.81	1.5
376	138530	25.91	1.5
376	139095	26.01	1.5
376	139652	26.11	1.5
376	140209	26.21	1.5
376	140766	26.31	1.5
376	141323	26.41	1.5
376	141880	26.51	1.5
376	142437	26.61	1.5
376	142994	26.71	1.5
376	143551	26.81	1.5
376	144108	26.91	1.5
376	144673	27.01	1.5
376	145230	27.11	1.5
376	145787	27.21	1.5
376	146344	27.31	1.5
376	146901	27.41	0.498621
376	147458	27.51	-0.839633
376	148015	27.61	-1.5
376	148572	27.71	-1.5
376	149129	27.81	-1.5
376	149686	27.91	-1.5
376	150251	28.01	-1.5
376	150808	28.11	-1.5
376	151365	28.21	-1.5
376	151922	28.31	-1.5
376	152479	28.41	-1.5
376	153036	28.51	-1.5
376	153593	28.61	-1.5
376	154150	28.71	-1.5
376	154707	28.81	-1.5
376	155264	28.91	-1.5
376	155829	29.01	-1.5
376	156386	29.11	-1.5
376	156943	29.21	-1.5
376	157500	29.31	-1.5
376	158057	29.41	-1.5
376	158614	29.51	-1.5
376	159171	29.61	-1.5
376	159728	29.71	-1.5
376	160285	29.81	-1.5
376	160842	29.91	-0.932159
376	161407	30.01	0.409427
376	161964	30.11	1.5
376	162521	30.21	1.5
376	163078	30.31	1.5
376	163635	30.41	1.5
376	164192	30.51	1.5
376	164749	30.61	1.5
376	165306	30.71	1.5
376	165863	30.81	1.5
376	166420	30.91	1.5
376	166985	31.01	1.5
376	167542	31.11	1.5
376	168099	31.21	1.5
376	168656	31.31	1.5
376	169213	31.41	1.5
376	169770	31.51	1.5
376	170327	31.61	1.5
376	170884	31.71	1.5
376	171441	31.81	1.5
376	171998	31.91	1.5
376	172563	32.01	1.5
376	173120	32.11	1.5
376	173677	32.21	1.5
376	174234	32.31	1.5
376	174791	32.41	0.586834
376	175348	32.51	-0.752098
376	175905	32.61	-1.5
376	176462	32.71	-1.5
376	177019	32.81	-1.5
376	177576	32.91	-1.5
376	178141	33.01	-1.5
376	178698	33.11	-1.5
376	179255	33.21	-1.5
376	179812	33.31	-1.5
376	180369	33.41	-1.5
376	180926	33.51	-1.5
376	181483	33.61	-1.5
376	182040	33.71	-1.5
376	182597	33.81	-1.5
376	183154	33.91	-1.5
376	183719	34.01	-1.5
376	184276	34.11	-1.5
376	184833	34.21	-1.5
376	185390	34.31	-1.5
376	185947	34.41	-1.5
376	186504	34.51	-1.5
376	187061	34.61	-1.5
376	187618	34.71	-1.5
376	188175	34.81	-1.5
376	188732	34.91	-0.861897
376	189297	35.01	0.479149
376	189854	35.11	1.5
376	190411	35.21	1.5
376	190968	35.31	1.5
376	191525	35.41	1.5
376	192082	35.51	1.5
376	192639	35.61	1.5
376	193196	35.71	1.5
376	193753	35.81	1.5
376	194310	35.91	1.5
376	194875	36.01	1.5
376	195432	36.11	1.5
376	195989	36.21	1.5
376	196546	36.31	1.5
376	197103	36.41	1.5
376	197660	36.51	1.5
376	198217	36.61	1.5
376	198774	36.71	1.5
376	199331	36.81	1.5
376	199888	36.91	1.5
376	200453	37.01	1.5
376	201010	37.11	1.5
376	201567	37.21	1.5
376	202124	37.31	1.5
376	202681	37.41	0.6428
376	203238	37.51	-0.696563
376	203795	37.61	-1.5
376	204352	37.71	-1.5
376	204909	37.81	-1.5
376	205466	37.91	-1.5
376	206031	38.01	-1.5
376	206588	38.11	-1.5
376	207145	38.21	-1.5
376	207702	38.31	-1.5
376	208259	38.41	-1.5
376	208816	38.51	-1.5
376	209373	38.61	-1.5
376	209930	38.71	-1.5
376	210487	38.81	-1.5
376	211044	38.91	-1.5
376	211609	39.01	-1.5
376	212166	39.11	-1.5
376	212723	39.21	-1.5
376	213280	39.31	-1.5
376	213837	39.41	-1.5
376	214394	39.51	-1.5
376	214951	39.61	-1.5
376	215508	39.71	-1.5
376	216065	39.81	-1.5
376	216622	39.91	-0.817319
376	217187	40.01	0.523385
376	217744	40.11	1.5
376	218301	40.21	1.5
376	218858	40.31	1.5
376	219415	40.41	1.5
376	219972	40.51	1.5
376	220529	40.61	1.5
376	221086	40.71	1.5
376	221643	40.81	1.5
376	222200	40.91	1.5
376	222765	41.01	1.5
376	223322	41.11	1.5
376	223879	41.21	1.5
376	224436	41.31	1.5
376	224993	41.41	1.5
376	225550	41.51	1.5
376	226107	41.61	1.5
376	226664	41.71	1.5
376	227221	41.81	1.5
376	227778	41.91	1.5
376	228343	42.01	1.5
376	228900	42.11	1.5
376	229457	42.21	1.5
376	230014	42.31	1.5
376	230571	42.41	0.678308
376	231128	42.51	-0.661327
376	231685	42.61	-1.5
376	232242	42.71	-1.5
376	232799	42.81	-1.5
376	233356	42.91	-1.5
376	233921	43.01	-1.5
376	234478	43.11	-1.5
376	235035	43.21	-1.5
376	235592	43.31	-1.5
376	236149	43.41	-1.5
376	236706	43.51	-1.5
376	237263	43.61	-1.5
376	237820	43.71	-1.5
376	238377	43.81	-1.5
376	238934	43.91	-1.5
376	239499	44.01	-1.5
376	240056	44.11	-1.5
376	240613	44.21	-1.5
376	241170	44.31	-1.5
376	241727	44.41	-1.5
376	242284	44.51	-1.5
376	242841	44.61	-1.5
376	243398	44.71	-1.5
376	243955	44.81	-1.5
376	244512	44.91	-0.789035
376	245077	45.01	0.551451
376	245634	45.11	1.5
376	246191	45.21	1.5
376	246748	45.31	1.5
376	247305	45.41	1.5
376	247862	45.51	1.5
376	248419	45.61	1.5
376	248976	45.71	1.5
376	249533	45.81	1.5
376	250090	45.91	1.5
376	250655	46.01	1.5
376	251212	46.11	1.5
376	251769	46.21	1.5
376	252326	46.31	1.5
376	252883	46.41	1.5
376	253440	46.51	1.5
376	253997	46.61	1.5
376	254554	46.71	1.5
376	255111	46.81	1.5
376	255668	46.91	1.5
376	256233	47.01	1.5
376	256790	47.11	1.5
376	257347	47.21	1.5
376	257904	47.31	1.5
376	258461	47.41	0.700837
376	259018	47.51	-0.638971
376	259575	47.61	-1.5
376	260132	47.71	-1.5
376	260689	47.81	-1.5
376	261246	47.91	-1.5
376	261811	48.01	-1.5
376	262368	48.11	-1.5
376	262925	48.21	-1.5
376	263482	48.31	-1.5
376	264039	48.41	-1.5
376	264596	48.51	-1.5
376	265153	48.61	-1.5
376	265710	48.71	-1.5
376	266267	48.81	-1.5
376	266824	48.91	-1.5
376	267389	49.01	-1.5
376	267946	49.11	-1.5
376	268503	49.21	-1.5
376	269060	49.31	-1.5
376	269617	49.41	-1.5
376	270174	49.51	-1.5
376	270731	49.61	-1.5
376	271288	49.71	-1.5
376	271845	49.81	-1.5
376	272402	49.91	-0.77109
376	272967	50.01	0.569259
376	273524	50.11	1.5
376	274081	50.21	1.5
376	274638	50.31	1.5
376	275195	50.41	1.5
376	275752	50.51	1.5
376	276309	50.61	1.5
376	276866	50.71	1.5
376	277423	50.81	1.5
376	277980	50.91	1.5
376	278545	51.01	1.5
376	279102	51.11	1.5
376	279659	51.21	1.5
376	280216	51.31	1.5
376	280773	51.41	1.5
376	281330	51.51	1.5
376	281887	51.61	1.5
376	282444	51.71	1.5
376	283001	51.81	1.5
376	283558	51.91	1.5
376	284123	52.01	1.5
376	284680	52.11	1.5
376	285237	52.21	1.5
376	285794	52.31	1.5
376	286351	52.41	0.715131
376	286908	52.51	-0.624787
376	287465	52.61	-1.5
376	288022	52.71	-1.5
376	288579	52.81	-1.5
376	289136	52.91	-1.5
376	289701	53.01	-1.5
376	290258	53.11	-1.5
376	290815	53.21	-1.5
376	291372	53.31	-1.5
376	291929	53.41	-1.5
376	292486	53.51	-1.5
376	293043	53.61	-1.5
376	293600	53.71	-1.5
376	294157	53.81	-1.5
376	294714	53.91	-1.5
376	295279	54.01	-1.5
376	295836	54.11	-1.5
376	296393	54.21	-1.5
376	296950	54.31	-1.5
376	297507	54.41	-1.5
376	298064	54.51	-1.5
376	298621	54.61	-1.5
376	299178	54.71	-1.5
376	299735	54.81	-1.5
376	300292	54.91	-0.759704
376	300857	55.01	0.580557
376	301414	55.11	1.5
376	301971	55.21	1.5
376	302528	55.31	1.5
376	303085	55.41	1.5
376	303642	55.51	1.5
376	304199	55.61	1.5
376	304756	55.71	1.5
376	305313	55.81	1.5
376	305870	55.91	1.5
376	306435	56.01	1.5
376	306992	56.11	1.5
376	307549	56.21	1.5
376	308106	56.31	1.5
376	308663	56.41	1.5
376	309220	56.51	1.5
376	309777	56.61	1.5
376	310334	56.71	1.5
376	310891	56.81	1.5
376	311448	56.91	1.5
376	312013	57.01	1.5
376	312570	57.11	1.5
376	313127	57.21	1.5
376	313684	57.31	1.5
376	314241	57.41	0.7242
376	314798	57.51	-0.615788
376	315355	57.61	-1.5
376	315912	57.71	-1.5
376	316469	57.81	-1.5
376	317026	57.91	-1.5
376	317591	58.01	-1.5
376	318148	58.11	-1.5
376	318705	58.21	-1.5
376	319262	58.31	-1.5
376	319819	58.41	-1.5
376	320376	58.51	-1.5
376	320933	58.61	-1.5
376	321490	58.71	-1.5
376	322047	58.81	-1.5
376	322604	58.91	-1.5
376	323169	59.01	-1.5
376	323726	59.11	-1.5
376	324283	59.21	-1.5
376	324840	59.31	-1.5
376	325397	59.41	-1.5
376	325954	59.51	-1.5
376	326511	59.61	-1.5
376	327068	59.71	-1.5
376	327625	59.81	-1.5
376	328182	59.91	-0.75248
375	233	1.11	-0.000188202
375	790	1.21	-0.000376715
375	1346	1.31	-0.000543808
375	1903	1.41	-0.000689929
375	2460	1.51	-0.00081568
375	3016	1.61	-0.000921803
375	3572	1.71	-0.00100915
375	4129	1.81	-0.00107868
375	4685	1.91	-0.00113141
375	5252	2.01	-0.00116844
375	5808	2.11	-0.0011909
375	6364	2.21	-0.00119997
375	6920	2.31	-0.00119682
375	7476	2.41	-0.00118265
375	8032	2.51	-0.00115862
375	8588	2.61	-0.00112591
375	9144	2.71	-0.00108564
375	9700	2.81	-0.00103891
375	10256	2.91	-0.000986771
375	10820	3.01	-0.000930235
375	11376	3.11	-0.000870249
375	11932	3.21	-0.00080771
375	12488	3.31	-0.00074345
375	13044	3.41	-0.000678241
375	13600	3.51	-0.000612789
375	14156	3.61	-0.000547737
375	14712	3.71	-0.000483664
375	15268	3.81	-0.000421081
375	15824	3.91	-0.000360441
375	16388	4.01	-0.000302133
375	16944	4.11	-0.000246489
375	17500	4.21	-0.000193782
375	18056	4.31	-0.000144233
375	18612	4.41	-9.80126e-05
375	19168	4.51	-5.5242e-05
375	19724	4.61	-1.59996e-05
375	20280	4.71	1.96774e-05
375	20836	4.81	5.17892e-05
375	21392	4.91	8.03694e-05
375	21957	5.01	0.000105482
375	22514	5.11	0.0121916
375	23071	5.21	0.129072
375	23628	5.31	0.258917
375	24185	5.41	0.376463
375	24742	5.51	0.482877
375	25299	5.61	0.579212
375	25856	5.71	0.666422
375	26413	5.81	0.745373
375	26970	5.91	0.816846
375	27535	6.01	0.88155
375	28092	6.11	0.940125
375	28649	6.21	0.993152
375	29206	6.31	1.04116
375	29763	6.41	1.08462
375	30320	6.51	1.12396
375	30877	6.61	1.15957
375	31434	6.71	1.19182
375	31991	6.81	1.22101
375	32548	6.91	1.24743
375	33113	7.01	1.27135
375	33670	7.11	1.29301
375	34227	7.21	1.31261
375	34784	7.31	1.32021
375	35341	7.41	1.22144
375	35898	7.51	1.01359
375	36455	7.61	0.775523
375	37012	7.71	0.560001
375	37569	7.81	0.364892
375	38126	7.91	0.188263
375	38691	8.01	0.028362
375	39248	8.11	-0.116394
375	39805	8.21	-0.247439
375	40362	8.31	-0.366073
375	40919	8.41	-0.473471
375	41476	8.51	-0.570697
375	42033	8.61	-0.658714
375	42590	8.71	-0.738394
375	43147	8.81	-0.810528
375	43704	8.91	-0.87583
375	44269	9.01	-0.934947
375	44826	9.11	-0.988465
375	45383	9.21	-1.03691
375	45940	9.31	-1.08077
375	46497	9.41	-1.12048
375	47054	9.51	-1.15643
375	47611	9.61	-1.18897
375	48168	9.71	-1.21843
375	48725	9.81	-1.24509
375	49282	9.91	-1.26924
375	49847	10.01	-1.28378
375	50404	10.11	-1.21557
375	50961	10.21	-1.03114
375	51518	10.31	-0.79141
375	52075	10.41	-0.574384
375	52632	10.51	-0.377913
375	53189	10.61	-0.20005
375	53746	10.71	-0.039033
375	54303	10.81	0.106733
375	54860	10.91	0.238694
375	55425	11.01	0.358156
375	55982	11.11	0.466304
375	56539	11.21	0.564208
375	57096	11.31	0.65284
375	57653	11.41	0.733077
375	58210	11.51	0.805715
375	58767	11.61	0.871472
375	59324	11.71	0.931002
375	59881	11.81	0.984894
375	60438	11.91	1.03368
375	61003	12.01	1.07785
375	61560	12.11	1.11783
375	62117	12.21	1.15403
375	62674	12.31	1.1817
375	63231	12.41	1.14506
375	63788	12.51	0.988957
375	64345	12.61	0.75322
375	64902	12.71	0.539811
375	65459	12.81	0.346614
375	66016	12.91	0.171716
375	66581	13.01	0.0133823
375	67138	13.11	-0.129955
375	67695	13.21	-0.259716
375	68252	13.31	-0.377187
375	68809	13.41	-0.483532
375	69366	13.51	-0.579805
375	69923	13.61	-0.666959
375	70480	13.71	-0.745859
375	71037	13.81	-0.817286
375	71594	13.91	-0.881948
375	72159	14.01	-0.940486
375	72716	14.11	-0.993479
375	73273	14.21	-1.04145
375	73830	14.31	-1.08488
375	74387	14.41	-1.1242
375	74944	14.51	-1.15979
375	75501	14.61	-1.19202
375	76058	14.71	-1.22119
375	76615	14.81	-1.24759
375	77172	14.91	-1.2715
375	77737	15.01	-1.2789
375	78294	15.11	-1.1592
375	78851	15.21	-0.934043
375	79408	15.31	-0.703507
375	79965	15.41	-0.494806
375	80522	15.51	-0.305872
375	81079	15.61	-0.134832
375	81636	15.71	0.0200076
375	82193	15.81	0.160182
375	82750	15.91	0.28708
375	83315	16.01	0.40196
375	83872	16.11	0.505958
375	84429	16.21	0.600107
375	84986	16.31	0.685339
375	85543	16.41	0.762498
375	86100	16.51	0.832349
375	86657	16.61	0.895584
375	87214	16.71	0.95283
375	87771	16.81	1.00465
375	88328	16.91	1.05157
375	88893	17.01	1.09404
375	89450	17.11	1.13249
375	90007	17.21	1.1673
375	90564	17.31	1.1982
375	91121	17.41	1.20275
375	91678	17.51	1.08184
375	92235	17.61	0.857082
375	92792	17.71	0.633836
375	93349	17.81	0.431734
375	93906	17.91	0.248773
375	94471	18.01	0.0831415
375	95028	18.11	-0.0668026
375	95585	18.21	-0.202545
375	96142	18.31	-0.325431
375	96699	18.41	-0.436678
375	97256	18.51	-0.537388
375	97813	18.61	-0.62856
375	98370	18.71	-0.711097
375	98927	18.81	-0.785816
375	99484	18.91	-0.853459
375	100049	19.01	-0.914695
375	100606	19.11	-0.970131
375	101163	19.21	-1.02032
375	101720	19.31	-1.06575
375	102277	19.41	-1.10688
375	102834	19.51	-1.14411
375	103391	19.61	-1.17782
375	103948	19.71	-1.20833
375	104505	19.81	-1.23596
375	105062	19.91	-1.2582
375	105627	20.01	-1.23596
375	106184	20.11	-1.08886
375	106741	20.21	-0.84419
375	107298	20.31	-0.622165
375	107855	20.41	-0.421168
375	108412	20.51	-0.239208
375	108969	20.61	-0.0744826
375	109526	20.71	0.0746414
375	110083	20.81	0.209641
375	110640	20.91	0.331855
375	111205	21.01	0.442494
375	111762	21.11	0.542653
375	112319	21.21	0.633327
375	112876	21.31	0.715412
375	113433	21.41	0.789723
375	113990	21.51	0.856995
375	114547	21.61	0.917896
375	115104	21.71	0.973029
375	115661	21.81	1.02294
375	116218	21.91	1.06812
375	116783	22.01	1.10903
375	117340	22.11	1.14606
375	117897	22.21	1.17958
375	118454	22.31	1.20993
375	119011	22.41	1.22611
375	119568	22.51	1.1256
375	120125	22.61	0.916598
375	120682	22.71	0.687715
375	121239	22.81	0.48051
375	121796	22.91	0.292929
375	122361	23.01	0.123116
375	122918	23.11	-0.0306146
375	123475	23.21	-0.169785
375	124032	23.31	-0.295773
375	124589	23.41	-0.409829
375	125146	23.51	-0.513083
375	125703	23.61	-0.606557
375	126260	23.71	-0.691177
375	126817	23.81	-0.767783
375	127374	23.91	-0.837134
375	127939	24.01	-0.899916
375	128496	24.11	-0.956752
375	129053	24.21	-1.0082
375	129610	24.31	-1.05478
375	130167	24.41	-1.09695
375	130724	24.51	-1.13513
375	131281	24.61	-1.16968
375	131838	24.71	-1.20097
375	132395	24.81	-1.22929
375	132952	24.91	-1.25041
375	133517	25.01	-1.21212
375	134074	25.11	-1.05203
375	134631	25.21	-0.810318
375	135188	25.31	-0.5915
375	135745	25.41	-0.393408
375	136302	25.51	-0.214078
375	136859	25.61	-0.0517321
375	137416	25.71	0.0952371
375	137973	25.81	0.228287
375	138530	25.91	0.348734
375	139095	26.01	0.457774
375	139652	26.11	0.556487
375	140209	26.21	0.64585
375	140766	26.31	0.726749
375	141323	26.41	0.799986
375	141880	26.51	0.866286
375	142437	26.61	0.926307
375	142994	26.71	0.980643
375	143551	26.81	1.02983
375	144108	26.91	1.07436
375	144673	27.01	1.11468
375	145230	27.11	1.15117
375	145787	27.21	1.18421
375	146344	27.31	1.21412
375	146901	27.41	1.23128
375	147458	27.51	1.14344
375	148015	27.61	0.944388
375	148572	27.71	0.712872
375	149129	27.81	0.503285
375	149686	27.91	0.313547
375	150251	28.01	0.141781
375	150808	28.11	-0.0137173
375	151365	28.21	-0.154488
375	151922	28.31	-0.281925
375	152479	28.41	-0.397293
375	153036	28.51	-0.501734
375	153593	28.61	-0.596282
375	154150	28.71	-0.681876
375	154707	28.81	-0.759363
375	155264	28.91	-0.829511
375	155829	29.01	-0.893015
375	156386	29.11	-0.950505
375	156943	29.21	-1.00255
375	157500	29.31	-1.04966
375	158057	29.41	-1.09232
375	158614	29.51	-1.13093
375	159171	29.61	-1.16589
375	159728	29.71	-1.19753
375	160285	29.81	-1.22618
375	160842	29.91	-1.24649
375	161407	30.01	-1.19812
375	161964	30.11	-1.0301
375	162521	30.21	-0.790469
375	163078	30.31	-0.573532
375	163635	30.41	-0.377141
375	164192	30.51	-0.199351
375	164749	30.61	-0.0384006
375	165306	30.71	0.107306
375	165863	30.81	0.239212
375	166420	30.91	0.358625
375	166985	31.01	0.466728
375	167542	31.11	0.564593
375	168099	31.21	0.653188
375	168656	31.31	0.733392
375	169213	31.41	0.806
375	169770	31.51	0.871731
375	170327	31.61	0.931236
375	170884	31.71	0.985105
375	171441	31.81	1.03387
375	171998	31.91	1.07802
375	172563	32.01	1.11799
375	173120	32.11	1.15417
375	173677	32.21	1.18692
375	174234	32.31	1.21658
375	174791	32.41	1.23438
375	175348	32.51	1.15456
375	175905	32.61	0.96183
375	176462	32.71	0.728663
375	177019	32.81	0.517579
375	177576	32.91	0.326488
375	178141	33.01	0.153496
375	178698	33.11	-0.00311155
375	179255	33.21	-0.144886
375	179812	33.31	-0.273233
375	180369	33.41	-0.389424
375	180926	33.51	-0.49461
375	181483	33.61	-0.589834
375	182040	33.71	-0.676038
375	182597	33.81	-0.754078
375	183154	33.91	-0.824727
375	183719	34.01	-0.888684
375	184276	34.11	-0.946584
375	184833	34.21	-0.998999
375	185390	34.31	-1.04645
375	185947	34.41	-1.08941
375	186504	34.51	-1.1283
375	187061	34.61	-1.1635
375	187618	34.71	-1.19537
375	188175	34.81	-1.22422
375	188732	34.91	-1.24403
375	189297	35.01	-1.18926
375	189854	35.11	-1.01621
375	190411	35.21	-0.777893
375	190968	35.31	-0.562147
375	191525	35.41	-0.366835
375	192082	35.51	-0.190021
375	192639	35.61	-0.0299541
375	193196	35.71	0.114952
375	193753	35.81	0.246135
375	194310	35.91	0.364892
375	194875	36.01	0.472402
375	195432	36.11	0.569728
375	195989	36.21	0.657837
375	196546	36.31	0.737601
375	197103	36.41	0.80981
375	197660	36.51	0.87518
375	198217	36.61	0.934359
375	198774	36.71	0.987932
375	199331	36.81	1.03643
375	199888	36.91	1.08034
375	200453	37.01	1.12009
375	201010	37.11	1.15607
375	201567	37.21	1.18864
375	202124	37.31	1.21813
375	202681	37.41	1.23634
375	203238	37.51	1.16162
375	203795	37.61	0.972895
375	204352	37.71	0.73868
375	204909	37.81	0.526647
375	205466	37.91	0.334697
375	206031	38.01	0.160928
375	206588	38.11	0.00361618
375	207145	38.21	-0.138796
375	207702	38.31	-0.26772
375	208259	38.41	-0.384433
375	208816	38.51	-0.490091
375	209373	38.61	-0.585743
375	209930	38.71	-0.672335
375	210487	38.81	-0.750726
375	211044	38.91	-0.821692
375	211609	39.01	-0.885936
375	212166	39.11	-0.944096
375	212723	39.21	-0.996748
375	213280	39.31	-1.04441
375	213837	39.41	-1.08756
375	214394	39.51	-1.12663
375	214951	39.61	-1.16199
375	215508	39.71	-1.194
375	216065	39.81	-1.22298
375	216622	39.91	-1.24246
375	217187	40.01	-1.18363
375	217744	40.11	-1.0074
375	218301	40.21	-0.769915
375	218858	40.31	-0.554924
375	219415	40.41	-0.360296
375	219972	40.51	-0.184102
375	220529	40.61	-0.0245953
375	221086	40.71	0.119804
375	221643	40.81	0.250526
375	222200	40.91	0.368868
375	222765	41.01	0.476001
375	223322	41.11	0.572987
375	223879	41.21	0.660787
375	224436	41.31	0.740272
375	224993	41.41	0.812228
375	225550	41.51	0.877369
375	226107	41.61	0.93634
375	226664	41.71	0.989726
375	227221	41.81	1.03806
375	227778	41.91	1.08181
375	228343	42.01	1.12142
375	228900	42.11	1.15727
375	229457	42.21	1.18973
375	230014	42.31	1.21912
375	230571	42.41	1.23759
375	231128	42.51	1.1661
375	231685	42.61	0.979915
375	232242	42.71	0.745035
375	232799	42.81	0.532401
375	233356	42.91	0.339906
375	233921	43.01	0.165643
375	234478	43.11	0.0078847
375	235035	43.21	-0.134932
375	235592	43.31	-0.264221
375	236149	43.41	-0.381266
375	236706	43.51	-0.487225
375	237263	43.61	-0.583148
375	237820	43.71	-0.669985
375	238377	43.81	-0.748599
375	238934	43.91	-0.819766
375	239499	44.01	-0.884193
375	240056	44.11	-0.942518
375	240613	44.21	-0.995319
375	241170	44.31	-1.04312
375	241727	44.41	-1.08639
375	242284	44.51	-1.12557
375	242841	44.61	-1.16103
375	243398	44.71	-1.19313
375	243955	44.81	-1.2222
375	244512	44.91	-1.24147
375	245077	45.01	-1.18007
375	245634	45.11	-1.00181
375	246191	45.21	-0.764852
375	246748	45.31	-0.550341
375	247305	45.41	-0.356147
375	247862	45.51	-0.180346
375	248419	45.61	-0.0211952
375	248976	45.71	0.122882
375	249533	45.81	0.253313
375	250090	45.91	0.37139
375	250655	46.01	0.478284
375	251212	46.11	0.575054
375	251769	46.21	0.662659
375	252326	46.31	0.741966
375	252883	46.41	0.813762
375	253440	46.51	0.878757
375	253997	46.61	0.937597
375	254554	46.71	0.990864
375	255111	46.81	1.03909
375	255668	46.91	1.08274
375	256233	47.01	1.12226
375	256790	47.11	1.15804
375	257347	47.21	1.19043
375	257904	47.31	1.21975
375	258461	47.41	1.23838
375	259018	47.51	1.16894
375	259575	47.61	0.984369
375	260132	47.71	0.749067
375	260689	47.81	0.536051
375	261246	47.91	0.34321
375	261811	48.01	0.168634
375	262368	48.11	0.0105929
375	262925	48.21	-0.13248
375	263482	48.31	-0.262002
375	264039	48.41	-0.379256
375	264596	48.51	-0.485406
375	265153	48.61	-0.581501
375	265710	48.71	-0.668495
375	266267	48.81	-0.747249
375	266824	48.91	-0.818544
375	267389	49.01	-0.883087
375	267946	49.11	-0.941517
375	268503	49.21	-0.994412
375	269060	49.31	-1.0423
375	269617	49.41	-1.08565
375	270174	49.51	-1.12489
375	270731	49.61	-1.16042
375	271288	49.71	-1.19258
375	271845	49.81	-1.2217
375	272402	49.91	-1.24084
375	272967	50.01	-1.1778
375	273524	50.11	-0.998258
375	274081	50.21	-0.761641
375	274638	50.31	-0.547434
375	275195	50.41	-0.353515
375	275752	50.51	-0.177963
375	276309	50.61	-0.019038
375	276866	50.71	0.124835
375	277423	50.81	0.255081
375	277980	50.91	0.372991
375	278545	51.01	0.479733
375	279102	51.11	0.576366
375	279659	51.21	0.663846
375	280216	51.31	0.743041
375	280773	51.41	0.814735
375	281330	51.51	0.879638
375	281887	51.61	0.938395
375	282444	51.71	0.991586
375	283001	51.81	1.03974
375	283558	51.91	1.08333
375	284123	52.01	1.1228
375	284680	52.11	1.15852
375	285237	52.21	1.19086
375	285794	52.31	1.22014
375	286351	52.41	1.23888
375	286908	52.51	1.17075
375	287465	52.61	0.987195
375	288022	52.71	0.751625
375	288579	52.81	0.538367
375	289136	52.91	0.345307
375	289701	53.01	0.170532
375	290258	53.11	0.0123112
375	290815	53.21	-0.130924
375	291372	53.31	-0.260594
375	291929	53.41	-0.377982
375	292486	53.51	-0.484251
375	293043	53.61	-0.580456
375	293600	53.71	-0.667549
375	294157	53.81	-0.746393
375	294714	53.91	-0.817769
375	295279	54.01	-0.882385
375	295836	54.11	-0.940882
375	296393	54.21	-0.993837
375	296950	54.31	-1.04178
375	297507	54.41	-1.08518
375	298064	54.51	-1.12447
375	298621	54.61	-1.16003
375	299178	54.71	-1.19223
375	299735	54.81	-1.22138
375	300292	54.91	-1.24044
375	300857	55.01	-1.17637
375	301414	55.11	-0.996007
375	301971	55.21	-0.759603
375	302528	55.31	-0.545589
375	303085	55.41	-0.351845
375	303642	55.51	-0.176451
375	304199	55.61	-0.0176694
375	304756	55.71	0.126074
375	305313	55.81	0.256202
375	305870	55.91	0.374006
375	306435	56.01	0.480653
375	306992	56.11	0.577198
375	307549	56.21	0.664599
375	308106	56.31	0.743723
375	308663	56.41	0.815352
375	309220	56.51	0.880197
375	309777	56.61	0.938901
375	310334	56.71	0.992044
375	310891	56.81	1.04015
375	311448	56.91	1.08371
375	312013	57.01	1.12314
375	312570	57.11	1.15883
375	313127	57.21	1.19114
375	313684	57.31	1.2204
375	314241	57.41	1.2392
375	314798	57.51	1.17189
375	315355	57.61	0.988988
375	315912	57.71	0.753248
375	316469	57.81	0.539836
375	317026	57.91	0.346637
375	317591	58.01	0.171737
375	318148	58.11	0.0134014
375	318705	58.21	-0.129937
375	319262	58.31	-0.2597
375	319819	58.41	-0.377173
375	320376	58.51	-0.483519
375	320933	58.61	-0.579793
375	321490	58.71	-0.666949
375	322047	58.81	-0.74585
375	322604	58.91	-0.817277
375	323169	59.01	-0.88194
375	323726	59.11	-0.940479
375	324283	59.21	-0.993473
375	324840	59.31	-1.04145
375	325397	59.41	-1.08488
375	325954	59.51	-1.1242
375	326511	59.61	-1.15979
375	327068	59.71	-1.19201
375	327625	59.81	-1.22118
375	328182	59.91	-1.24019
374	233	1.11	242.45
374	790	1.21	242.45
374	1346	1.31	242.45
374	1903	1.41	242.45
374	2460	1.51	242.45
374	3016	1.61	242.45
374	3572	1.71	242.45
374	4129	1.81	242.45
374	4685	1.91	242.45
374	5252	2.01	242.45
374	5808	2.11	242.45
374	6364	2.21	242.45
374	6920	2.31	242.45
374	7476	2.41	242.45
374	8032	2.51	242.45
374	8588	2.61	242.45
374	9144	2.71	242.45
374	9700	2.81	242.45
374	10256	2.91	242.45
374	10820	3.01	242.45
374	11376	3.11	242.45
374	11932	3.21	242.45
374	12488	3.31	242.45
374	13044	3.41	242.45
374	13600	3.51	242.45
374	14156	3.61	242.45
374	14712	3.71	242.45
374	15268	3.81	242.45
374	15824	3.91	242.45
374	16388	4.01	242.45
374	16944	4.11	242.45
374	17500	4.21	242.45
374	18056	4.31	242.45
374	18612	4.41	242.45
374	19168	4.51	242.45
374	19724	4.61	242.45
374	20280	4.71	242.45
374	20836	4.81	242.45
374	21392	4.91	242.45
374	21957	5.01	242.45
374	22514	5.11	242.45
374	23071	5.21	242.45
374	23628	5.31	242.45
374	24185	5.41	242.45
374	24742	5.51	242.45
374	25299	5.61	242.45
374	25856	5.71	242.45
374	26413	5.81	242.45
374	26970	5.91	242.45
374	27535	6.01	242.45
374	28092	6.11	242.45
374	28649	6.21	242.45
374	29206	6.31	242.45
374	29763	6.41	242.45
374	30320	6.51	242.45
374	30877	6.61	242.45
374	31434	6.71	242.45
374	31991	6.81	242.45
374	32548	6.91	242.45
374	33113	7.01	242.45
374	33670	7.11	242.45
374	34227	7.21	242.45
374	34784	7.31	242.45
374	35341	7.41	242.45
374	35898	7.51	242.45
374	36455	7.61	242.45
374	37012	7.71	242.45
374	37569	7.81	242.45
374	38126	7.91	242.45
374	38691	8.01	242.45
374	39248	8.11	242.45
374	39805	8.21	242.45
374	40362	8.31	242.45
374	40919	8.41	242.45
374	41476	8.51	242.45
374	42033	8.61	242.45
374	42590	8.71	242.45
374	43147	8.81	242.45
374	43704	8.91	242.45
374	44269	9.01	242.45
374	44826	9.11	242.45
374	45383	9.21	242.45
374	45940	9.31	242.45
374	46497	9.41	242.45
374	47054	9.51	242.45
374	47611	9.61	242.45
374	48168	9.71	242.45
374	48725	9.81	242.45
374	49282	9.91	242.45
374	49847	10.01	242.45
374	50404	10.11	242.45
374	50961	10.21	242.45
374	51518	10.31	242.45
374	52075	10.41	242.45
374	52632	10.51	242.45
374	53189	10.61	242.45
374	53746	10.71	242.45
374	54303	10.81	242.45
374	54860	10.91	242.45
374	55425	11.01	242.45
374	55982	11.11	242.45
374	56539	11.21	242.45
374	57096	11.31	242.45
374	57653	11.41	242.45
374	58210	11.51	242.45
374	58767	11.61	242.45
374	59324	11.71	242.45
374	59881	11.81	242.45
374	60438	11.91	242.45
374	61003	12.01	242.45
374	61560	12.11	242.45
374	62117	12.21	242.45
374	62674	12.31	242.45
374	63231	12.41	242.45
374	63788	12.51	242.45
374	64345	12.61	242.45
374	64902	12.71	242.45
374	65459	12.81	242.45
374	66016	12.91	242.45
374	66581	13.01	242.45
374	67138	13.11	242.45
374	67695	13.21	242.45
374	68252	13.31	242.45
374	68809	13.41	242.45
374	69366	13.51	242.45
374	69923	13.61	242.45
374	70480	13.71	242.45
374	71037	13.81	242.45
374	71594	13.91	242.45
374	72159	14.01	242.45
374	72716	14.11	242.45
374	73273	14.21	242.45
374	73830	14.31	242.45
374	74387	14.41	242.45
374	74944	14.51	242.45
374	75501	14.61	242.45
374	76058	14.71	242.45
374	76615	14.81	242.45
374	77172	14.91	242.45
374	77737	15.01	242.45
374	78294	15.11	242.45
374	78851	15.21	242.45
374	79408	15.31	242.45
374	79965	15.41	242.45
374	80522	15.51	242.45
374	81079	15.61	242.45
374	81636	15.71	242.45
374	82193	15.81	242.45
374	82750	15.91	242.45
374	83315	16.01	242.45
374	83872	16.11	242.45
374	84429	16.21	242.45
374	84986	16.31	242.45
374	85543	16.41	242.45
374	86100	16.51	242.45
374	86657	16.61	242.45
374	87214	16.71	242.45
374	87771	16.81	242.45
374	88328	16.91	242.45
374	88893	17.01	242.45
374	89450	17.11	242.45
374	90007	17.21	242.45
374	90564	17.31	242.45
374	91121	17.41	242.45
374	91678	17.51	242.45
374	92235	17.61	242.45
374	92792	17.71	242.45
374	93349	17.81	242.45
374	93906	17.91	242.45
374	94471	18.01	242.45
374	95028	18.11	242.45
374	95585	18.21	242.45
374	96142	18.31	242.45
374	96699	18.41	242.45
374	97256	18.51	242.45
374	97813	18.61	242.45
374	98370	18.71	242.45
374	98927	18.81	242.45
374	99484	18.91	242.45
374	100049	19.01	242.45
374	100606	19.11	242.45
374	101163	19.21	242.45
374	101720	19.31	242.45
374	102277	19.41	242.45
374	102834	19.51	242.45
374	103391	19.61	242.45
374	103948	19.71	242.45
374	104505	19.81	242.45
374	105062	19.91	242.45
374	105627	20.01	242.45
374	106184	20.11	242.45
374	106741	20.21	242.45
374	107298	20.31	242.45
374	107855	20.41	242.45
374	108412	20.51	242.45
374	108969	20.61	242.45
374	109526	20.71	242.45
374	110083	20.81	242.45
374	110640	20.91	242.45
374	111205	21.01	242.45
374	111762	21.11	242.45
374	112319	21.21	242.45
374	112876	21.31	242.45
374	113433	21.41	242.45
374	113990	21.51	242.45
374	114547	21.61	242.45
374	115104	21.71	242.45
374	115661	21.81	242.45
374	116218	21.91	242.45
374	116783	22.01	242.45
374	117340	22.11	242.45
374	117897	22.21	242.45
374	118454	22.31	242.45
374	119011	22.41	242.45
374	119568	22.51	242.45
374	120125	22.61	242.45
374	120682	22.71	242.45
374	121239	22.81	242.45
374	121796	22.91	242.45
374	122361	23.01	242.45
374	122918	23.11	242.45
374	123475	23.21	242.45
374	124032	23.31	242.45
374	124589	23.41	242.45
374	125146	23.51	242.45
374	125703	23.61	242.45
374	126260	23.71	242.45
374	126817	23.81	242.45
374	127374	23.91	242.45
374	127939	24.01	242.45
374	128496	24.11	242.45
374	129053	24.21	242.45
374	129610	24.31	242.45
374	130167	24.41	242.45
374	130724	24.51	242.45
374	131281	24.61	242.45
374	131838	24.71	242.45
374	132395	24.81	242.45
374	132952	24.91	242.45
374	133517	25.01	242.45
374	134074	25.11	242.45
374	134631	25.21	242.45
374	135188	25.31	242.45
374	135745	25.41	242.45
374	136302	25.51	242.45
374	136859	25.61	242.45
374	137416	25.71	242.45
374	137973	25.81	242.45
374	138530	25.91	242.45
374	139095	26.01	242.45
374	139652	26.11	242.45
374	140209	26.21	242.45
374	140766	26.31	242.45
374	141323	26.41	242.45
374	141880	26.51	242.45
374	142437	26.61	242.45
374	142994	26.71	242.45
374	143551	26.81	242.45
374	144108	26.91	242.45
374	144673	27.01	242.45
374	145230	27.11	242.45
374	145787	27.21	242.45
374	146344	27.31	242.45
374	146901	27.41	242.45
374	147458	27.51	242.45
374	148015	27.61	242.45
374	148572	27.71	242.45
374	149129	27.81	242.45
374	149686	27.91	242.45
374	150251	28.01	242.45
374	150808	28.11	242.45
374	151365	28.21	242.45
374	151922	28.31	242.45
374	152479	28.41	242.45
374	153036	28.51	242.45
374	153593	28.61	242.45
374	154150	28.71	242.45
374	154707	28.81	242.45
374	155264	28.91	242.45
374	155829	29.01	242.45
374	156386	29.11	242.45
374	156943	29.21	242.45
374	157500	29.31	242.45
374	158057	29.41	242.45
374	158614	29.51	242.45
374	159171	29.61	242.45
374	159728	29.71	242.45
374	160285	29.81	242.45
374	160842	29.91	242.45
374	161407	30.01	242.45
374	161964	30.11	242.45
374	162521	30.21	242.45
374	163078	30.31	242.45
374	163635	30.41	242.45
374	164192	30.51	242.45
374	164749	30.61	242.45
374	165306	30.71	242.45
374	165863	30.81	242.45
374	166420	30.91	242.45
374	166985	31.01	242.45
374	167542	31.11	242.45
374	168099	31.21	242.45
374	168656	31.31	242.45
374	169213	31.41	242.45
374	169770	31.51	242.45
374	170327	31.61	242.45
374	170884	31.71	242.45
374	171441	31.81	242.45
374	171998	31.91	242.45
374	172563	32.01	242.45
374	173120	32.11	242.45
374	173677	32.21	242.45
374	174234	32.31	242.45
374	174791	32.41	242.45
374	175348	32.51	242.45
374	175905	32.61	242.45
374	176462	32.71	242.45
374	177019	32.81	242.45
374	177576	32.91	242.45
374	178141	33.01	242.45
374	178698	33.11	242.45
374	179255	33.21	242.45
374	179812	33.31	242.45
374	180369	33.41	242.45
374	180926	33.51	242.45
374	181483	33.61	242.45
374	182040	33.71	242.45
374	182597	33.81	242.45
374	183154	33.91	242.45
374	183719	34.01	242.45
374	184276	34.11	242.45
374	184833	34.21	242.45
374	185390	34.31	242.45
374	185947	34.41	242.45
374	186504	34.51	242.45
374	187061	34.61	242.45
374	187618	34.71	242.45
374	188175	34.81	242.45
374	188732	34.91	242.45
374	189297	35.01	242.45
374	189854	35.11	242.45
374	190411	35.21	242.45
374	190968	35.31	242.45
374	191525	35.41	242.45
374	192082	35.51	242.45
374	192639	35.61	242.45
374	193196	35.71	242.45
374	193753	35.81	242.45
374	194310	35.91	242.45
374	194875	36.01	242.45
374	195432	36.11	242.45
374	195989	36.21	242.45
374	196546	36.31	242.45
374	197103	36.41	242.45
374	197660	36.51	242.45
374	198217	36.61	242.45
374	198774	36.71	242.45
374	199331	36.81	242.45
374	199888	36.91	242.45
374	200453	37.01	242.45
374	201010	37.11	242.45
374	201567	37.21	242.45
374	202124	37.31	242.45
374	202681	37.41	242.45
374	203238	37.51	242.45
374	203795	37.61	242.45
374	204352	37.71	242.45
374	204909	37.81	242.45
374	205466	37.91	242.45
374	206031	38.01	242.45
374	206588	38.11	242.45
374	207145	38.21	242.45
374	207702	38.31	242.45
374	208259	38.41	242.45
374	208816	38.51	242.45
374	209373	38.61	242.45
374	209930	38.71	242.45
374	210487	38.81	242.45
374	211044	38.91	242.45
374	211609	39.01	242.45
374	212166	39.11	242.45
374	212723	39.21	242.45
374	213280	39.31	242.45
374	213837	39.41	242.45
374	214394	39.51	242.45
374	214951	39.61	242.45
374	215508	39.71	242.45
374	216065	39.81	242.45
374	216622	39.91	242.45
374	217187	40.01	242.45
374	217744	40.11	242.45
374	218301	40.21	242.45
374	218858	40.31	242.45
374	219415	40.41	242.45
374	219972	40.51	242.45
374	220529	40.61	242.45
374	221086	40.71	242.45
374	221643	40.81	242.45
374	222200	40.91	242.45
374	222765	41.01	242.45
374	223322	41.11	242.45
374	223879	41.21	242.45
374	224436	41.31	242.45
374	224993	41.41	242.45
374	225550	41.51	242.45
374	226107	41.61	242.45
374	226664	41.71	242.45
374	227221	41.81	242.45
374	227778	41.91	242.45
374	228343	42.01	242.45
374	228900	42.11	242.45
374	229457	42.21	242.45
374	230014	42.31	242.45
374	230571	42.41	242.45
374	231128	42.51	242.45
374	231685	42.61	242.45
374	232242	42.71	242.45
374	232799	42.81	242.45
374	233356	42.91	242.45
374	233921	43.01	242.45
374	234478	43.11	242.45
374	235035	43.21	242.45
374	235592	43.31	242.45
374	236149	43.41	242.45
374	236706	43.51	242.45
374	237263	43.61	242.45
374	237820	43.71	242.45
374	238377	43.81	242.45
374	238934	43.91	242.45
374	239499	44.01	242.45
374	240056	44.11	242.45
374	240613	44.21	242.45
374	241170	44.31	242.45
374	241727	44.41	242.45
374	242284	44.51	242.45
374	242841	44.61	242.45
374	243398	44.71	242.45
374	243955	44.81	242.45
374	244512	44.91	242.45
374	245077	45.01	242.45
374	245634	45.11	242.45
374	246191	45.21	242.45
374	246748	45.31	242.45
374	247305	45.41	242.45
374	247862	45.51	242.45
374	248419	45.61	242.45
374	248976	45.71	242.45
374	249533	45.81	242.45
374	250090	45.91	242.45
374	250655	46.01	242.45
374	251212	46.11	242.45
374	251769	46.21	242.45
374	252326	46.31	242.45
374	252883	46.41	242.45
374	253440	46.51	242.45
374	253997	46.61	242.45
374	254554	46.71	242.45
374	255111	46.81	242.45
374	255668	46.91	242.45
374	256233	47.01	242.45
374	256790	47.11	242.45
374	257347	47.21	242.45
374	257904	47.31	242.45
374	258461	47.41	242.45
374	259018	47.51	242.45
374	259575	47.61	242.45
374	260132	47.71	242.45
374	260689	47.81	242.45
374	261246	47.91	242.45
374	261811	48.01	242.45
374	262368	48.11	242.45
374	262925	48.21	242.45
374	263482	48.31	242.45
374	264039	48.41	242.45
374	264596	48.51	242.45
374	265153	48.61	242.45
374	265710	48.71	242.45
374	266267	48.81	242.45
374	266824	48.91	242.45
374	267389	49.01	242.45
374	267946	49.11	242.45
374	268503	49.21	242.45
374	269060	49.31	242.45
374	269617	49.41	242.45
374	270174	49.51	242.45
374	270731	49.61	242.45
374	271288	49.71	242.45
374	271845	49.81	242.45
374	272402	49.91	242.45
374	272967	50.01	242.45
374	273524	50.11	242.45
374	274081	50.21	242.45
374	274638	50.31	242.45
374	275195	50.41	242.45
374	275752	50.51	242.45
374	276309	50.61	242.45
374	276866	50.71	242.45
374	277423	50.81	242.45
374	277980	50.91	242.45
374	278545	51.01	242.45
374	279102	51.11	242.45
374	279659	51.21	242.45
374	280216	51.31	242.45
374	280773	51.41	242.45
374	281330	51.51	242.45
374	281887	51.61	242.45
374	282444	51.71	242.45
374	283001	51.81	242.45
374	283558	51.91	242.45
374	284123	52.01	242.45
374	284680	52.11	242.45
374	285237	52.21	242.45
374	285794	52.31	242.45
374	286351	52.41	242.45
374	286908	52.51	242.45
374	287465	52.61	242.45
374	288022	52.71	242.45
374	288579	52.81	242.45
374	289136	52.91	242.45
374	289701	53.01	242.45
374	290258	53.11	242.45
374	290815	53.21	242.45
374	291372	53.31	242.45
374	291929	53.41	242.45
374	292486	53.51	242.45
374	293043	53.61	242.45
374	293600	53.71	242.45
374	294157	53.81	242.45
374	294714	53.91	242.45
374	295279	54.01	242.45
374	295836	54.11	242.45
374	296393	54.21	242.45
374	296950	54.31	242.45
374	297507	54.41	242.45
374	298064	54.51	242.45
374	298621	54.61	242.45
374	299178	54.71	242.45
374	299735	54.81	242.45
374	300292	54.91	242.45
374	300857	55.01	242.45
374	301414	55.11	242.45
374	301971	55.21	242.45
374	302528	55.31	242.45
374	303085	55.41	242.45
374	303642	55.51	242.45
374	304199	55.61	242.45
374	304756	55.71	242.45
374	305313	55.81	242.45
374	305870	55.91	242.45
374	306435	56.01	242.45
374	306992	56.11	242.45
374	307549	56.21	242.45
374	308106	56.31	242.45
374	308663	56.41	242.45
374	309220	56.51	242.45
374	309777	56.61	242.45
374	310334	56.71	242.45
374	310891	56.81	242.45
374	311448	56.91	242.45
374	312013	57.01	242.45
374	312570	57.11	242.45
374	313127	57.21	242.45
374	313684	57.31	242.45
374	314241	57.41	242.45
374	314798	57.51	242.45
374	315355	57.61	242.45
374	315912	57.71	242.45
374	316469	57.81	242.45
374	317026	57.91	242.45
374	317591	58.01	242.45
374	318148	58.11	242.45
374	318705	58.21	242.45
374	319262	58.31	242.45
374	319819	58.41	242.45
374	320376	58.51	242.45
374	320933	58.61	242.45
374	321490	58.71	242.45
374	322047	58.81	242.45
374	322604	58.91	242.45
374	323169	59.01	242.45
374	323726	59.11	242.45
374	324283	59.21	242.45
374	324840	59.31	242.45
374	325397	59.41	242.45
374	325954	59.51	242.45
374	326511	59.61	242.45
374	327068	59.71	242.45
374	327625	59.81	242.45
374	328182	59.91	242.45
373	233	1.11	73.9402
373	790	1.21	76.7182
373	1346	1.31	79.4962
373	1903	1.41	82.2742
373	2460	1.51	85.0522
373	3016	1.61	87.8301
373	3572	1.71	90.6081
373	4129	1.81	93.3861
373	4685	1.91	96.164
373	5252	2.01	98.9419
373	5808	2.11	101.72
373	6364	2.21	104.498
373	6920	2.31	107.276
373	7476	2.41	110.054
373	8032	2.51	112.831
373	8588	2.61	115.609
373	9144	2.71	118.387
373	9700	2.81	121.165
373	10256	2.91	123.943
373	10820	3.01	126.721
373	11376	3.11	129.498
373	11932	3.21	132.276
373	12488	3.31	135.054
373	13044	3.41	137.832
373	13600	3.51	140.61
373	14156	3.61	143.387
373	14712	3.71	146.165
373	15268	3.81	148.943
373	15824	3.91	151.721
373	16388	4.01	154.498
373	16944	4.11	157.276
373	17500	4.21	160.054
373	18056	4.31	162.832
373	18612	4.41	165.609
373	19168	4.51	168.387
373	19724	4.61	171.165
373	20280	4.71	173.943
373	20836	4.81	176.72
373	21392	4.91	179.498
373	21957	5.01	182.276
373	22514	5.11	185.054
373	23071	5.21	187.832
373	23628	5.31	190.611
373	24185	5.41	193.393
373	24742	5.51	196.179
373	25299	5.61	198.97
373	25856	5.71	201.766
373	26413	5.81	204.57
373	26970	5.91	207.38
373	27535	6.01	210.199
373	28092	6.11	213.027
373	28649	6.21	215.864
373	29206	6.31	218.711
373	29763	6.41	221.569
373	30320	6.51	224.438
373	30877	6.61	227.317
373	31434	6.71	230.209
373	31991	6.81	233.112
373	32548	6.91	236.027
373	33113	7.01	238.955
373	33670	7.11	241.896
373	34227	7.21	244.85
373	34784	7.31	247.816
373	35341	7.41	250.796
373	35898	7.51	253.788
373	36455	7.61	256.79
373	37012	7.71	259.799
373	37569	7.81	262.814
373	38126	7.91	265.833
373	38691	8.01	268.853
373	39248	8.11	271.874
373	39805	8.21	274.893
373	40362	8.31	277.91
373	40919	8.41	280.923
373	41476	8.51	283.931
373	42033	8.61	286.934
373	42590	8.71	289.93
373	43147	8.81	292.918
373	43704	8.91	295.899
373	44269	9.01	298.87
373	44826	9.11	301.833
373	45383	9.21	304.785
373	45940	9.31	307.727
373	46497	9.41	310.658
373	47054	9.51	313.578
373	47611	9.61	316.486
373	48168	9.71	319.383
373	48725	9.81	322.267
373	49282	9.91	325.139
373	49847	10.01	327.998
373	50404	10.11	330.844
373	50961	10.21	333.679
373	51518	10.31	336.503
373	52075	10.41	339.319
373	52632	10.51	342.13
373	53189	10.61	344.937
373	53746	10.71	347.743
373	54303	10.81	350.547
373	54860	10.91	353.353
373	55425	11.01	356.162
373	55982	11.11	358.974
373	56539	11.21	361.791
373	57096	11.31	364.613
373	57653	11.41	367.442
373	58210	11.51	370.278
373	58767	11.61	373.123
373	59324	11.71	375.976
373	59881	11.81	378.838
373	60438	11.91	381.711
373	61003	12.01	384.594
373	61560	12.11	387.487
373	62117	12.21	390.392
373	62674	12.31	393.308
373	63231	12.41	396.236
373	63788	12.51	399.175
373	64345	12.61	402.124
373	64902	12.71	405.081
373	65459	12.81	408.043
373	66016	12.91	411.008
373	66581	13.01	413.974
373	67138	13.11	416.941
373	67695	13.21	419.907
373	68252	13.31	422.869
373	68809	13.41	425.828
373	69366	13.51	428.783
373	69923	13.61	431.731
373	70480	13.71	434.672
373	71037	13.81	437.607
373	71594	13.91	440.532
373	72159	14.01	443.45
373	72716	14.11	446.357
373	73273	14.21	449.255
373	73830	14.31	452.142
373	74387	14.41	455.018
373	74944	14.51	457.883
373	75501	14.61	460.737
373	76058	14.71	463.579
373	76615	14.81	466.408
373	77172	14.91	469.225
373	77737	15.01	472.029
373	78294	15.11	474.82
373	78851	15.21	477.601
373	79408	15.31	480.371
373	79965	15.41	483.135
373	80522	15.51	485.895
373	81079	15.61	488.651
373	81636	15.71	491.406
373	82193	15.81	494.161
373	82750	15.91	496.918
373	83315	16.01	499.677
373	83872	16.11	502.441
373	84429	16.21	505.21
373	84986	16.31	507.985
373	85543	16.41	510.767
373	86100	16.51	513.556
373	86657	16.61	516.354
373	87214	16.71	519.161
373	87771	16.81	521.977
373	88328	16.91	524.804
373	88893	17.01	527.64
373	89450	17.11	530.488
373	90007	17.21	533.348
373	90564	17.31	536.219
373	91121	17.41	539.101
373	91678	17.51	541.996
373	92235	17.61	544.902
373	92792	17.71	547.815
373	93349	17.81	550.735
373	93906	17.91	553.66
373	94471	18.01	556.586
373	95028	18.11	559.514
373	95585	18.21	562.441
373	96142	18.31	565.365
373	96699	18.41	568.287
373	97256	18.51	571.204
373	97813	18.61	574.115
373	98370	18.71	577.02
373	98927	18.81	579.918
373	99484	18.91	582.809
373	100049	19.01	585.69
373	100606	19.11	588.563
373	101163	19.21	591.425
373	101720	19.31	594.278
373	102277	19.41	597.12
373	102834	19.51	599.95
373	103391	19.61	602.77
373	103948	19.71	605.577
373	104505	19.81	608.373
373	105062	19.91	611.156
373	105627	20.01	613.926
373	106184	20.11	616.684
373	106741	20.21	619.432
373	107298	20.31	622.171
373	107855	20.41	624.905
373	108412	20.51	627.634
373	108969	20.61	630.36
373	109526	20.71	633.086
373	110083	20.81	635.813
373	110640	20.91	638.542
373	111205	21.01	641.275
373	111762	21.11	644.011
373	112319	21.21	646.754
373	112876	21.31	649.502
373	113433	21.41	652.258
373	113990	21.51	655.022
373	114547	21.61	657.795
373	115104	21.71	660.576
373	115661	21.81	663.367
373	116218	21.91	666.169
373	116783	22.01	668.981
373	117340	22.11	671.805
373	117897	22.21	674.64
373	118454	22.31	677.486
373	119011	22.41	680.345
373	119568	22.51	683.216
373	120125	22.61	686.098
373	120682	22.71	688.989
373	121239	22.81	691.887
373	121796	22.91	694.789
373	122361	23.01	697.694
373	122918	23.11	700.601
373	123475	23.21	703.507
373	124032	23.31	706.411
373	124589	23.41	709.313
373	125146	23.51	712.21
373	125703	23.61	715.102
373	126260	23.71	717.988
373	126817	23.81	720.867
373	127374	23.91	723.738
373	127939	24.01	726.601
373	128496	24.11	729.455
373	129053	24.21	732.299
373	129610	24.31	735.133
373	130167	24.41	737.957
373	130724	24.51	740.769
373	131281	24.61	743.571
373	131838	24.71	746.36
373	132395	24.81	749.138
373	132952	24.91	751.903
373	133517	25.01	754.656
373	134074	25.11	757.397
373	134631	25.21	760.127
373	135188	25.31	762.85
373	135745	25.41	765.566
373	136302	25.51	768.279
373	136859	25.61	770.99
373	137416	25.71	773.7
373	137973	25.81	776.412
373	138530	25.91	779.125
373	139095	26.01	781.843
373	139652	26.11	784.564
373	140209	26.21	787.292
373	140766	26.31	790.026
373	141323	26.41	792.767
373	141880	26.51	795.516
373	142437	26.61	798.274
373	142994	26.71	801.041
373	143551	26.81	803.819
373	144108	26.91	806.606
373	144673	27.01	809.404
373	145230	27.11	812.213
373	145787	27.21	815.034
373	146344	27.31	817.867
373	146901	27.41	820.712
373	147458	27.51	823.569
373	148015	27.61	826.437
373	148572	27.71	829.314
373	149129	27.81	832.199
373	149686	27.91	835.089
373	150251	28.01	837.981
373	150808	28.11	840.875
373	151365	28.21	843.769
373	151922	28.31	846.661
373	152479	28.41	849.55
373	153036	28.51	852.435
373	153593	28.61	855.315
373	154150	28.71	858.19
373	154707	28.81	861.057
373	155264	28.91	863.917
373	155829	29.01	866.768
373	156386	29.11	869.61
373	156943	29.21	872.443
373	157500	29.31	875.266
373	158057	29.41	878.078
373	158614	29.51	880.88
373	159171	29.61	883.67
373	159728	29.71	886.448
373	160285	29.81	889.215
373	160842	29.91	891.969
373	161407	30.01	894.71
373	161964	30.11	897.44
373	162521	30.21	900.16
373	163078	30.31	902.872
373	163635	30.41	905.579
373	164192	30.51	908.281
373	164749	30.61	910.982
373	165306	30.71	913.683
373	165863	30.81	916.384
373	166420	30.91	919.088
373	166985	31.01	921.796
373	167542	31.11	924.508
373	168099	31.21	927.226
373	168656	31.31	929.951
373	169213	31.41	932.683
373	169770	31.51	935.423
373	170327	31.61	938.172
373	170884	31.71	940.93
373	171441	31.81	943.698
373	171998	31.91	946.477
373	172563	32.01	949.266
373	173120	32.11	952.066
373	173677	32.21	954.878
373	174234	32.31	957.702
373	174791	32.41	960.538
373	175348	32.51	963.386
373	175905	32.61	966.246
373	176462	32.71	969.115
373	177019	32.81	971.991
373	177576	32.91	974.872
373	178141	33.01	977.757
373	178698	33.11	980.643
373	179255	33.21	983.529
373	179812	33.31	986.413
373	180369	33.41	989.294
373	180926	33.51	992.172
373	181483	33.61	995.045
373	182040	33.71	997.911
373	182597	33.81	1000.77
373	183154	33.91	1003.62
373	183719	34.01	1006.47
373	184276	34.11	1009.3
373	184833	34.21	1012.13
373	185390	34.31	1014.94
373	185947	34.41	1017.75
373	186504	34.51	1020.54
373	187061	34.61	1023.33
373	187618	34.71	1026.1
373	188175	34.81	1028.86
373	188732	34.91	1031.6
373	189297	35.01	1034.34
373	189854	35.11	1037.06
373	190411	35.21	1039.78
373	190968	35.31	1042.48
373	191525	35.41	1045.18
373	192082	35.51	1047.88
373	192639	35.61	1050.57
373	193196	35.71	1053.27
373	193753	35.81	1055.96
373	194310	35.91	1058.66
373	194875	36.01	1061.36
373	195432	36.11	1064.07
373	195989	36.21	1066.78
373	196546	36.31	1069.5
373	197103	36.41	1072.22
373	197660	36.51	1074.96
373	198217	36.61	1077.7
373	198774	36.71	1080.45
373	199331	36.81	1083.22
373	199888	36.91	1085.99
373	200453	37.01	1088.77
373	201010	37.11	1091.57
373	201567	37.21	1094.37
373	202124	37.31	1097.19
373	202681	37.41	1100.02
373	203238	37.51	1102.86
373	203795	37.61	1105.72
373	204352	37.71	1108.58
373	204909	37.81	1111.45
373	205466	37.91	1114.33
373	206031	38.01	1117.21
373	206588	38.11	1120.09
373	207145	38.21	1122.97
373	207702	38.31	1125.85
373	208259	38.41	1128.73
373	208816	38.51	1131.6
373	209373	38.61	1134.47
373	209930	38.71	1137.33
373	210487	38.81	1140.18
373	211044	38.91	1143.03
373	211609	39.01	1145.87
373	212166	39.11	1148.7
373	212723	39.21	1151.52
373	213280	39.31	1154.33
373	213837	39.41	1157.13
373	214394	39.51	1159.92
373	214951	39.61	1162.7
373	215508	39.71	1165.47
373	216065	39.81	1168.22
373	216622	39.91	1170.97
373	217187	40.01	1173.7
373	217744	40.11	1176.42
373	218301	40.21	1179.12
373	218858	40.31	1181.83
373	219415	40.41	1184.52
373	219972	40.51	1187.21
373	220529	40.61	1189.9
373	221086	40.71	1192.59
373	221643	40.81	1195.29
373	222200	40.91	1197.98
373	222765	41.01	1200.68
373	223322	41.11	1203.38
373	223879	41.21	1206.09
373	224436	41.31	1208.8
373	224993	41.41	1211.53
373	225550	41.51	1214.26
373	226107	41.61	1217
373	226664	41.71	1219.74
373	227221	41.81	1222.5
373	227778	41.91	1225.27
373	228343	42.01	1228.05
373	228900	42.11	1230.84
373	229457	42.21	1233.65
373	230014	42.31	1236.46
373	230571	42.41	1239.29
373	231128	42.51	1242.13
373	231685	42.61	1244.98
373	232242	42.71	1247.84
373	232799	42.81	1250.71
373	233356	42.91	1253.58
373	233921	43.01	1256.45
373	234478	43.11	1259.33
373	235035	43.21	1262.21
373	235592	43.31	1265.09
373	236149	43.41	1267.96
373	236706	43.51	1270.83
373	237263	43.61	1273.69
373	237820	43.71	1276.55
373	238377	43.81	1279.41
373	238934	43.91	1282.25
373	239499	44.01	1285.09
373	240056	44.11	1287.91
373	240613	44.21	1290.73
373	241170	44.31	1293.54
373	241727	44.41	1296.34
373	242284	44.51	1299.13
373	242841	44.61	1301.9
373	243398	44.71	1304.66
373	243955	44.81	1307.42
373	244512	44.91	1310.16
373	245077	45.01	1312.88
373	245634	45.11	1315.6
373	246191	45.21	1318.31
373	246748	45.31	1321
373	247305	45.41	1323.7
373	247862	45.51	1326.39
373	248419	45.61	1329.07
373	248976	45.71	1331.76
373	249533	45.81	1334.45
373	250090	45.91	1337.14
373	250655	46.01	1339.84
373	251212	46.11	1342.54
373	251769	46.21	1345.24
373	252326	46.31	1347.96
373	252883	46.41	1350.68
373	253440	46.51	1353.41
373	253997	46.61	1356.14
373	254554	46.71	1358.89
373	255111	46.81	1361.65
373	255668	46.91	1364.41
373	256233	47.01	1367.19
373	256790	47.11	1369.98
373	257347	47.21	1372.78
373	257904	47.31	1375.59
373	258461	47.41	1378.42
373	259018	47.51	1381.25
373	259575	47.61	1384.1
373	260132	47.71	1386.96
373	260689	47.81	1389.82
373	261246	47.91	1392.7
373	261811	48.01	1395.57
373	262368	48.11	1398.45
373	262925	48.21	1401.32
373	263482	48.31	1404.2
373	264039	48.41	1407.07
373	264596	48.51	1409.93
373	265153	48.61	1412.8
373	265710	48.71	1415.65
373	266267	48.81	1418.51
373	266824	48.91	1421.35
373	267389	49.01	1424.18
373	267946	49.11	1427.01
373	268503	49.21	1429.82
373	269060	49.31	1432.63
373	269617	49.41	1435.43
373	270174	49.51	1438.21
373	270731	49.61	1440.99
373	271288	49.71	1443.75
373	271845	49.81	1446.5
373	272402	49.91	1449.24
373	272967	50.01	1451.96
373	273524	50.11	1454.68
373	274081	50.21	1457.38
373	274638	50.31	1460.08
373	275195	50.41	1462.77
373	275752	50.51	1465.46
373	276309	50.61	1468.14
373	276866	50.71	1470.83
373	277423	50.81	1473.52
373	277980	50.91	1476.21
373	278545	51.01	1478.9
373	279102	51.11	1481.6
373	279659	51.21	1484.3
373	280216	51.31	1487.01
373	280773	51.41	1489.73
373	281330	51.51	1492.46
373	281887	51.61	1495.2
373	282444	51.71	1497.94
373	283001	51.81	1500.7
373	283558	51.91	1503.46
373	284123	52.01	1506.24
373	284680	52.11	1509.02
373	285237	52.21	1511.82
373	285794	52.31	1514.63
373	286351	52.41	1517.46
373	286908	52.51	1520.29
373	287465	52.61	1523.14
373	288022	52.71	1526
373	288579	52.81	1528.86
373	289136	52.91	1531.73
373	289701	53.01	1534.6
373	290258	53.11	1537.48
373	290815	53.21	1540.35
373	291372	53.31	1543.22
373	291929	53.41	1546.09
373	292486	53.51	1548.96
373	293043	53.61	1551.82
373	293600	53.71	1554.68
373	294157	53.81	1557.53
373	294714	53.91	1560.37
373	295279	54.01	1563.2
373	295836	54.11	1566.03
373	296393	54.21	1568.84
373	296950	54.31	1571.65
373	297507	54.41	1574.44
373	298064	54.51	1577.23
373	298621	54.61	1580
373	299178	54.71	1582.76
373	299735	54.81	1585.51
373	300292	54.91	1588.25
373	300857	55.01	1590.97
373	301414	55.11	1593.68
373	301971	55.21	1596.39
373	302528	55.31	1599.08
373	303085	55.41	1601.77
373	303642	55.51	1604.46
373	304199	55.61	1607.15
373	304756	55.71	1609.83
373	305313	55.81	1612.52
373	305870	55.91	1615.21
373	306435	56.01	1617.9
373	306992	56.11	1620.6
373	307549	56.21	1623.3
373	308106	56.31	1626.01
373	308663	56.41	1628.73
373	309220	56.51	1631.45
373	309777	56.61	1634.19
373	310334	56.71	1636.93
373	310891	56.81	1639.69
373	311448	56.91	1642.45
373	312013	57.01	1645.23
373	312570	57.11	1648.01
373	313127	57.21	1650.81
373	313684	57.31	1653.62
373	314241	57.41	1656.44
373	314798	57.51	1659.28
373	315355	57.61	1662.12
373	315912	57.71	1664.98
373	316469	57.81	1667.84
373	317026	57.91	1670.71
373	317591	58.01	1673.58
373	318148	58.11	1676.46
373	318705	58.21	1679.33
373	319262	58.31	1682.2
373	319819	58.41	1685.07
373	320376	58.51	1687.94
373	320933	58.61	1690.8
373	321490	58.71	1693.65
373	322047	58.81	1696.5
373	322604	58.91	1699.34
373	323169	59.01	1702.18
373	323726	59.11	1705
373	324283	59.21	1707.81
373	324840	59.31	1710.62
373	325397	59.41	1713.41
373	325954	59.51	1716.2
373	326511	59.61	1718.97
373	327068	59.71	1721.73
373	327625	59.81	1724.48
373	328182	59.91	1727.21
372	233	1.11	27.78
372	790	1.21	27.78
372	1346	1.31	27.7799
372	1903	1.41	27.7799
372	2460	1.51	27.7798
372	3016	1.61	27.7797
372	3572	1.71	27.7796
372	4129	1.81	27.7795
372	4685	1.91	27.7794
372	5252	2.01	27.7793
372	5808	2.11	27.7791
372	6364	2.21	27.779
372	6920	2.31	27.7789
372	7476	2.41	27.7788
372	8032	2.51	27.7787
372	8588	2.61	27.7786
372	9144	2.71	27.7784
372	9700	2.81	27.7783
372	10256	2.91	27.7782
372	10820	3.01	27.7781
372	11376	3.11	27.778
372	11932	3.21	27.778
372	12488	3.31	27.7779
372	13044	3.41	27.7778
372	13600	3.51	27.7778
372	14156	3.61	27.7777
372	14712	3.71	27.7776
372	15268	3.81	27.7776
372	15824	3.91	27.7776
372	16388	4.01	27.7775
372	16944	4.11	27.7775
372	17500	4.21	27.7775
372	18056	4.31	27.7775
372	18612	4.41	27.7775
372	19168	4.51	27.7774
372	19724	4.61	27.7774
372	20280	4.71	27.7774
372	20836	4.81	27.7774
372	21392	4.91	27.7775
372	21957	5.01	27.7775
372	22514	5.11	27.7776
372	23071	5.21	27.7852
372	23628	5.31	27.8054
372	24185	5.41	27.8378
372	24742	5.51	27.8814
372	25299	5.61	27.9351
372	25856	5.71	27.9979
372	26413	5.81	28.0689
372	26970	5.91	28.1474
372	27535	6.01	28.2327
372	28092	6.11	28.3242
372	28649	6.21	28.4211
372	29206	6.31	28.5231
372	29763	6.41	28.6297
372	30320	6.51	28.7403
372	30877	6.61	28.8547
372	31434	6.71	28.9725
372	31991	6.81	29.0933
372	32548	6.91	29.2169
372	33113	7.01	29.3429
372	33670	7.11	29.4713
372	34227	7.21	29.6017
372	34784	7.31	29.7338
372	35341	7.41	29.861
372	35898	7.51	29.9719
372	36455	7.61	30.0599
372	37012	7.71	30.1254
372	37569	7.81	30.1706
372	38126	7.91	30.1972
372	38691	8.01	30.2071
372	39248	8.11	30.2018
372	39805	8.21	30.1829
372	40362	8.31	30.1515
372	40919	8.41	30.1089
372	41476	8.51	30.0561
372	42033	8.61	29.9942
372	42590	8.71	29.9238
372	43147	8.81	29.846
372	43704	8.91	29.7613
372	44269	9.01	29.6704
372	44826	9.11	29.5739
372	45383	9.21	29.4724
372	45940	9.31	29.3662
372	46497	9.41	29.2559
372	47054	9.51	29.1419
372	47611	9.61	29.0244
372	48168	9.71	28.9039
372	48725	9.81	28.7805
372	49282	9.91	28.6547
372	49847	10.01	28.5266
372	50404	10.11	28.4014
372	50961	10.21	28.2897
372	51518	10.31	28.1999
372	52075	10.41	28.1329
372	52632	10.51	28.0864
372	53189	10.61	28.0586
372	53746	10.71	28.0476
372	54303	10.81	28.0518
372	54860	10.91	28.0698
372	55425	11.01	28.1004
372	55982	11.11	28.1422
372	56539	11.21	28.1943
372	57096	11.31	28.2557
372	57653	11.41	28.3254
372	58210	11.51	28.4028
372	58767	11.61	28.4871
372	59324	11.71	28.5775
372	59881	11.81	28.6736
372	60438	11.91	28.7748
372	61003	12.01	28.8807
372	61560	12.11	28.9907
372	62117	12.21	29.1045
372	62674	12.31	29.2217
372	63231	12.41	29.3384
372	63788	12.51	29.4448
372	64345	12.61	29.5305
372	64902	12.71	29.594
372	65459	12.81	29.6371
372	66016	12.91	29.662
372	66581	13.01	29.6704
372	67138	13.11	29.6637
372	67695	13.21	29.6435
372	68252	13.31	29.6109
372	68809	13.41	29.5673
372	69366	13.51	29.5136
372	69923	13.61	29.4507
372	70480	13.71	29.3796
372	71037	13.81	29.301
372	71594	13.91	29.2157
372	72159	14.01	29.1242
372	72716	14.11	29.0272
372	73273	14.21	28.9252
372	73830	14.31	28.8186
372	74387	14.41	28.708
372	74944	14.51	28.5936
372	75501	14.61	28.4758
372	76058	14.71	28.3549
372	76615	14.81	28.2314
372	77172	14.91	28.1053
372	77737	15.01	27.9771
372	78294	15.11	27.8552
372	78851	15.21	27.7517
372	79408	15.31	27.6711
372	79965	15.41	27.6124
372	80522	15.51	27.5735
372	81079	15.61	27.5524
372	81636	15.71	27.5476
372	82193	15.81	27.5574
372	82750	15.91	27.5805
372	83315	16.01	27.6157
372	83872	16.11	27.6617
372	84429	16.21	27.7175
372	84986	16.31	27.7823
372	85543	16.41	27.8551
372	86100	16.51	27.9353
372	86657	16.61	28.022
372	87214	16.71	28.1148
372	87771	16.81	28.213
372	88328	16.91	28.316
372	88893	17.01	28.4236
372	89450	17.11	28.5351
372	90007	17.21	28.6503
372	90564	17.31	28.7688
372	91121	17.41	28.8895
372	91678	17.51	29.0037
372	92235	17.61	29.0995
372	92792	17.71	29.1727
372	93349	17.81	29.2248
372	93906	17.91	29.2578
372	94471	18.01	29.2734
372	95028	18.11	29.2734
372	95585	18.21	29.2591
372	96142	18.31	29.232
372	96699	18.41	29.1933
372	97256	18.51	29.144
372	97813	18.61	29.0851
372	98370	18.71	29.0177
372	98927	18.81	28.9424
372	99484	18.91	28.86
372	100049	19.01	28.7713
372	100606	19.11	28.6767
372	101163	19.21	28.5769
372	101720	19.31	28.4723
372	102277	19.41	28.3635
372	102834	19.51	28.2507
372	103391	19.61	28.1344
372	103948	19.71	28.0149
372	104505	19.81	27.8925
372	105062	19.91	27.7676
372	105627	20.01	27.6423
372	106184	20.11	27.5263
372	106741	20.21	27.4311
372	107298	20.31	27.359
372	107855	20.41	27.308
372	108412	20.51	27.2761
372	108969	20.61	27.2613
372	109526	20.71	27.2622
372	110083	20.81	27.2772
372	110640	20.91	27.305
372	111205	21.01	27.3444
372	111762	21.11	27.3942
372	112319	21.21	27.4535
372	112876	21.31	27.5214
372	113433	21.41	27.5971
372	113990	21.51	27.6799
372	114547	21.61	27.769
372	115104	21.71	27.8638
372	115661	21.81	27.9639
372	116218	21.91	28.0687
372	116783	22.01	28.1778
372	117340	22.11	28.2908
372	117897	22.21	28.4073
372	118454	22.31	28.5269
372	119011	22.41	28.6493
372	119568	22.51	28.767
372	120125	22.61	28.8682
372	120682	22.71	28.947
372	121239	22.81	29.0042
372	121796	22.91	29.0418
372	122361	23.01	29.0616
372	122918	23.11	29.0654
372	123475	23.21	29.0545
372	124032	23.31	29.0305
372	124589	23.41	28.9946
372	125146	23.51	28.9478
372	125703	23.61	28.8913
372	126260	23.71	28.8259
372	126817	23.81	28.7525
372	127374	23.91	28.6719
372	127939	24.01	28.5847
372	128496	24.11	28.4915
372	129053	24.21	28.393
372	129610	24.31	28.2895
372	130167	24.41	28.1817
372	130724	24.51	28.0699
372	131281	24.61	27.9544
372	131838	24.71	27.8357
372	132395	24.81	27.7141
372	132952	24.91	27.5897
372	133517	25.01	27.4662
372	134074	25.11	27.3533
372	134631	25.21	27.2616
372	135188	25.31	27.1928
372	135745	25.41	27.1447
372	136302	25.51	27.1154
372	136859	25.61	27.103
372	137416	25.71	27.1061
372	137973	25.81	27.123
372	138530	25.91	27.1526
372	139095	26.01	27.1935
372	139652	26.11	27.2448
372	140209	26.21	27.3054
372	140766	26.31	27.3745
372	141323	26.41	27.4513
372	141880	26.51	27.535
372	142437	26.61	27.625
372	142994	26.71	27.7206
372	143551	26.81	27.8215
372	144108	26.91	27.9269
372	144673	27.01	28.0366
372	145230	27.11	28.1501
372	145787	27.21	28.2671
372	146344	27.31	28.3872
372	146901	27.41	28.51
372	147458	27.51	28.6289
372	148015	27.61	28.7324
372	148572	27.71	28.814
372	149129	27.81	28.8735
372	149686	27.91	28.9133
372	150251	28.01	28.935
372	150808	28.11	28.9405
372	151365	28.21	28.9313
372	151922	28.31	28.9088
372	152479	28.41	28.8741
372	153036	28.51	28.8286
372	153593	28.61	28.7731
372	154150	28.71	28.7087
372	154707	28.81	28.6362
372	155264	28.91	28.5563
372	155829	29.01	28.4698
372	156386	29.11	28.3773
372	156943	29.21	28.2794
372	157500	29.31	28.1765
372	158057	29.41	28.0691
372	158614	29.51	27.9578
372	159171	29.61	27.8427
372	159728	29.71	27.7244
372	160285	29.81	27.603
372	160842	29.91	27.479
372	161407	30.01	27.3564
372	161964	30.11	27.2454
372	162521	30.21	27.1558
372	163078	30.31	27.0889
372	163635	30.41	27.0425
372	164192	30.51	27.0147
372	164749	30.61	27.0037
372	165306	30.71	27.008
372	165863	30.81	27.0261
372	166420	30.91	27.0567
372	166985	31.01	27.0986
372	167542	31.11	27.1507
372	168099	31.21	27.2121
372	168656	31.31	27.2819
372	169213	31.41	27.3593
372	169770	31.51	27.4436
372	170327	31.61	27.5341
372	170884	31.71	27.6302
372	171441	31.81	27.7314
372	171998	31.91	27.8373
372	172563	32.01	27.9473
372	173120	32.11	28.0612
372	173677	32.21	28.1784
372	174234	32.31	28.2987
372	174791	32.41	28.4218
372	175348	32.51	28.5414
372	175905	32.61	28.6465
372	176462	32.71	28.7297
372	177019	32.81	28.7908
372	177576	32.91	28.8319
372	178141	33.01	28.8549
372	178698	33.11	28.8615
372	179255	33.21	28.8532
372	179812	33.31	28.8316
372	180369	33.41	28.7978
372	180926	33.51	28.753
372	181483	33.61	28.6982
372	182040	33.71	28.6344
372	182597	33.81	28.5624
372	183154	33.91	28.4831
372	183719	34.01	28.397
372	184276	34.11	28.3049
372	184833	34.21	28.2073
372	185390	34.31	28.1048
372	185947	34.41	27.9978
372	186504	34.51	27.8866
372	187061	34.61	27.7719
372	187618	34.71	27.6537
372	188175	34.81	27.5326
372	188732	34.91	27.4088
372	189297	35.01	27.2868
372	189854	35.11	27.177
372	190411	35.21	27.0887
372	190968	35.31	27.0229
372	191525	35.41	26.9776
372	192082	35.51	26.9508
372	192639	35.61	26.9407
372	193196	35.71	26.9458
372	193753	35.81	26.9646
372	194310	35.91	26.9959
372	194875	36.01	27.0384
372	195432	36.11	27.091
372	195989	36.21	27.1529
372	196546	36.31	27.2232
372	197103	36.41	27.301
372	197660	36.51	27.3856
372	198217	36.61	27.4764
372	198774	36.71	27.5728
372	199331	36.81	27.6743
372	199888	36.91	27.7804
372	200453	37.01	27.8907
372	201010	37.11	28.0047
372	201567	37.21	28.1221
372	202124	37.31	28.2426
372	202681	37.41	28.3659
372	203238	37.51	28.486
372	203795	37.61	28.592
372	204352	37.71	28.6762
372	204909	37.81	28.7383
372	205466	37.91	28.7802
372	206031	38.01	28.804
372	206588	38.11	28.8113
372	207145	38.21	28.8037
372	207702	38.31	28.7826
372	208259	38.41	28.7493
372	208816	38.51	28.705
372	209373	38.61	28.6506
372	209930	38.71	28.5872
372	210487	38.81	28.5156
372	211044	38.91	28.4366
372	211609	39.01	28.3508
372	212166	39.11	28.259
372	212723	39.21	28.1617
372	213280	39.31	28.0593
372	213837	39.41	27.9525
372	214394	39.51	27.8415
372	214951	39.61	27.7269
372	215508	39.71	27.6089
372	216065	39.81	27.4879
372	216622	39.91	27.3642
372	217187	40.01	27.2426
372	217744	40.11	27.1336
372	218301	40.21	27.0461
372	218858	40.31	26.9811
372	219415	40.41	26.9365
372	219972	40.51	26.9103
372	220529	40.61	26.9008
372	221086	40.71	26.9064
372	221643	40.81	26.9256
372	222200	40.91	26.9573
372	222765	41.01	27.0002
372	223322	41.11	27.0532
372	223879	41.21	27.1154
372	224436	41.31	27.1859
372	224993	41.41	27.2639
372	225550	41.51	27.3488
372	226107	41.61	27.4398
372	226664	41.71	27.5364
372	227221	41.81	27.6381
372	227778	41.91	27.7444
372	228343	42.01	27.8548
372	228900	42.11	27.9689
372	229457	42.21	28.0864
372	230014	42.31	28.2071
372	230571	42.41	28.3304
372	231128	42.51	28.4508
372	231685	42.61	28.5574
372	232242	42.71	28.6423
372	232799	42.81	28.7049
372	233356	42.91	28.7474
372	233921	43.01	28.7717
372	234478	43.11	28.7795
372	235035	43.21	28.7723
372	235592	43.31	28.7516
372	236149	43.41	28.7186
372	236706	43.51	28.6746
372	237263	43.61	28.6205
372	237820	43.71	28.5573
372	238377	43.81	28.4859
372	238934	43.91	28.4071
372	239499	44.01	28.3215
372	240056	44.11	28.2299
372	240613	44.21	28.1327
372	241170	44.31	28.0305
372	241727	44.41	27.9237
372	242284	44.51	27.8129
372	242841	44.61	27.6984
372	243398	44.71	27.5805
372	243955	44.81	27.4595
372	244512	44.91	27.3359
372	245077	45.01	27.2145
372	245634	45.11	27.106
372	246191	45.21	27.0191
372	246748	45.31	26.9546
372	247305	45.41	26.9104
372	247862	45.51	26.8846
372	248419	45.61	26.8754
372	248976	45.71	26.8813
372	249533	45.81	26.9009
372	250090	45.91	26.9328
372	250655	46.01	26.9759
372	251212	46.11	27.0292
372	251769	46.21	27.0916
372	252326	46.31	27.1622
372	252883	46.41	27.2405
372	253440	46.51	27.3255
372	253997	46.61	27.4166
372	254554	46.71	27.5134
372	255111	46.81	27.6151
372	255668	46.91	27.7215
372	256233	47.01	27.832
372	256790	47.11	27.9462
372	257347	47.21	28.0638
372	257904	47.31	28.1845
372	258461	47.41	28.3078
372	259018	47.51	28.4285
372	259575	47.61	28.5355
372	260132	47.71	28.6208
372	260689	47.81	28.6838
372	261246	47.91	28.7266
372	261811	48.01	28.7512
372	262368	48.11	28.7593
372	262925	48.21	28.7523
372	263482	48.31	28.7319
372	264039	48.41	28.6991
372	264596	48.51	28.6553
372	265153	48.61	28.6014
372	265710	48.71	28.5383
372	266267	48.81	28.4671
372	266824	48.91	28.3884
372	267389	49.01	28.3029
372	267946	49.11	28.2114
372	268503	49.21	28.1143
372	269060	49.31	28.0121
372	269617	49.41	27.9055
372	270174	49.51	27.7947
372	270731	49.61	27.6803
372	271288	49.71	27.5624
372	271845	49.81	27.4416
372	272402	49.91	27.318
372	272967	50.01	27.1968
372	273524	50.11	27.0885
372	274081	50.21	27.0019
372	274638	50.31	26.9377
372	275195	50.41	26.8938
372	275752	50.51	26.8682
372	276309	50.61	26.8593
372	276866	50.71	26.8655
372	277423	50.81	26.8852
372	277980	50.91	26.9173
372	278545	51.01	26.9606
372	279102	51.11	27.0139
372	279659	51.21	27.0764
372	280216	51.31	27.1472
372	280773	51.41	27.2256
372	281330	51.51	27.3106
372	281887	51.61	27.4019
372	282444	51.71	27.4987
372	283001	51.81	27.6005
372	283558	51.91	27.707
372	284123	52.01	27.8175
372	284680	52.11	27.9318
372	285237	52.21	28.0494
372	285794	52.31	28.1701
372	286351	52.41	28.2936
372	286908	52.51	28.4143
372	287465	52.61	28.5216
372	288022	52.71	28.6071
372	288579	52.81	28.6704
372	289136	52.91	28.7134
372	289701	53.01	28.7382
372	290258	53.11	28.7464
372	290815	53.21	28.7397
372	291372	53.31	28.7193
372	291929	53.41	28.6867
372	292486	53.51	28.643
372	293043	53.61	28.5892
372	293600	53.71	28.5263
372	294157	53.81	28.4551
372	294714	53.91	28.3765
372	295279	54.01	28.2911
372	295836	54.11	28.1996
372	296393	54.21	28.1026
372	296950	54.31	28.0005
372	297507	54.41	27.8939
372	298064	54.51	27.7832
372	298621	54.61	27.6688
372	299178	54.71	27.551
372	299735	54.81	27.4301
372	300292	54.91	27.3066
372	300857	55.01	27.1855
372	301414	55.11	27.0775
372	301971	55.21	26.991
372	302528	55.31	26.927
372	303085	55.41	26.8833
372	303642	55.51	26.8579
372	304199	55.61	26.8491
372	304756	55.71	26.8554
372	305313	55.81	26.8752
372	305870	55.91	26.9074
372	306435	56.01	26.9508
372	306992	56.11	27.0042
372	307549	56.21	27.0668
372	308106	56.31	27.1377
372	308663	56.41	27.2161
372	309220	56.51	27.3012
372	309777	56.61	27.3925
372	310334	56.71	27.4894
[...]
542	325584	59.454603266865	7
542	326141	59.554594107724	7
542	326692	59.654597948455	7
542	327249	59.754601789056	7
542	327806	59.854605629524	7
542	328363	59.954596469855	7
541	1070	1.255198410977	7
541	1627	1.355189251559	7
541	2184	1.455167092141	7
541	2740	1.555222932722	7
541	3296	1.655213773303	7
541	3853	1.755178613884	7
541	4409	1.855234454465	7
541	4966	1.955186295046	7
541	5532	2.055242135626	7
541	6088	2.155245976206	7
541	6644	2.255210816786	7
541	7200	2.355162657366	7
541	7756	2.455205497946	7
541	8312	2.555261338524	7
541	8868	2.655265179102	7
541	9424	2.755230019679	7
541	9980	2.855259860256	7
541	10536	2.955263700833	7
541	11100	3.05518954141	7
541	11656	3.155167381987	7
541	12212	3.255197222564	7
541	12768	3.355201063141	7
541	13324	3.455256903717	7
541	13880	3.555221744293	7
541	14436	3.655199584868	7
541	14992	3.755216425443	7
541	15548	3.855220266018	7
541	16104	3.955263106591	7
541	16668	4.055214947164	7
541	17224	4.155257787737	7
541	17780	4.25519662831	7
541	18336	4.355200468883	7
541	18892	4.455230309456	7
541	19448	4.555260150029	7
541	20004	4.655237990602	7
541	20560	4.755202831175	7
541	21116	4.855219671748	7
541	21672	4.955236512321	7
541	22237	5.055227352894	7
541	22794	5.155192193466	7
541	23351	5.255209034044	7
541	23908	5.355238874637	7
541	24465	5.455177715257	7
541	25022	5.555220555913	7
541	25579	5.655211396618	7
541	26136	5.755189237382	7
541	26693	5.855245078215	7
541	27250	5.955248919126	7
541	27815	6.055265760123	7
541	28372	6.155165601213	7
541	28929	6.255247442402	7
541	29486	6.355238283693	7
541	30043	6.455255125095	7
541	30600	6.555167966608	7
541	31157	6.655184808239	7
541	31714	6.755214649989	7
541	32271	6.855205491862	7
541	32828	6.95524833386	7
541	33393	7.055187175987	7
541	33950	7.15524301824	7
541	34507	7.255168860622	7
541	35064	7.355224703133	7
541	35621	7.455202545771	7
541	36178	7.555167388522	7
541	36735	7.655171231368	7
541	37292	7.755253074286	7
541	37849	7.855178917251	7
541	38406	7.955221760241	7
541	38971	8.055212603234	7
541	39528	8.155216446212	7
541	40085	8.255194289158	7
541	40642	8.355237132053	7
541	41199	8.455201974886	7
541	41756	8.55519281764	7
541	42313	8.655209660306	7
541	42870	8.755252502872	7
541	43427	8.85520434533	7
541	43984	8.955182187671	7
541	44549	9.055225029885	7
541	45106	9.155163871967	7
541	45663	9.255258713909	7
541	46220	9.355262555707	7
541	46777	9.455240397355	7
541	47334	9.555218238851	7
541	47891	9.655196080187	7
541	48448	9.755173921363	7
541	49005	9.855242762376	7
541	49562	9.955168603221	7
541	50127	10.055185443897	7
541	50684	10.155202284408	7
541	51241	10.255258124762	7
541	51798	10.355235964979	7
541	52355	10.455213805077	7
541	52912	10.55519164508	7
541	53469	10.655195485011	7
541	54026	10.75526432489	7
541	54583	10.855255164737	7
541	55140	10.955220004568	7
541	55705	11.055210844401	7
541	56262	11.155227684247	7
541	56819	11.255205524122	7
541	57376	11.355183364037	7
541	57933	11.455213204001	7
541	58490	11.555191044026	7
541	59047	11.655207884119	7
541	59604	11.755250724288	7
541	60161	11.855228564541	7
541	60718	11.955193404881	7
541	61283	12.055262245319	7
541	61840	12.155201085854	7
541	62397	12.255256926493	7
541	62954	12.355234767242	7
541	63511	12.455186608099	7
541	64068	12.555242449059	7
541	64625	12.655181290105	7
541	65182	12.755237131217	7
541	65739	12.855175972376	7
541	66296	12.955244813561	7
541	66861	13.05520965475	7
541	67418	13.155226495925	7
541	67975	13.255256337069	7
541	68532	13.355208178169	7
541	69089	13.455251019208	7
541	69646	13.555215860176	7
541	70203	13.655258701062	7
541	70760	13.755223541855	7
541	71317	13.855188382546	7
541	71874	13.955244223131	7
541	72439	14.0552610636	7
541	72996	14.155238903945	7
541	73553	14.255190744163	7
541	74110	14.355233584248	7
541	74667	14.455237424198	7
541	75224	14.555228264007	7
541	75781	14.655167103672	7
541	76338	14.755183943191	7
541	76895	14.855187782562	7
541	77452	14.955191621782	7
541	78017	15.055195460853	7
541	78574	15.155238299778	7
541	79131	15.255203138569	7
541	79688	15.355180977247	7
541	80245	15.455184815836	7
541	80802	15.555240654359	7
541	81359	15.655244492839	7
541	81916	15.755196331295	7
541	82473	15.855187169749	7
541	83030	15.955165008215	7
541	83595	16.055259846709	7
541	84152	16.155224685244	7
541	84709	16.255215523835	7
541	85266	16.355180362494	7
541	85823	16.455171201228	7
541	86380	16.555240040052	7
541	86937	16.65524387897	7
541	87494	16.755182717993	7
541	88051	16.855199557125	7
541	88608	16.955203396375	7
541	89173	17.055246235746	7
541	89730	17.155198075244	7
541	90287	17.255240914874	7
541	90844	17.355192754638	7
541	91401	17.455209594539	7
541	91958	17.555187434575	7
541	92515	17.655230274733	7
541	93072	17.755169114994	7
541	93629	17.855185955335	7
541	94186	17.955254795737	7
541	94751	18.055258636179	7
541	95308	18.155223476639	7
541	95865	18.255253317103	7
541	96422	18.355205157553	7
541	96979	18.455195997977	7
541	97536	18.55522583836	7
541	98093	18.655190678691	7
541	98650	18.75524651896	7
541	99207	18.855224359155	7
541	99764	18.955254199272	7
541	100329	19.055219039302	7
541	100886	19.155235879237	7
541	101443	19.255226719072	7
541	102000	19.355243558801	7
541	102557	19.45522139842	7
541	103114	19.555264237924	7
541	103671	19.65522907731	7
541	104228	19.755245916574	7
541	104785	19.855171755715	7
541	105342	19.955201594731	7
541	105907	20.05525743362	7
541	106464	20.155261272388	7
541	107021	20.255226111053	7
541	107578	20.355177949636	7
541	108135	20.455246788159	7
541	108692	20.555198626644	7
541	109249	20.655228465114	7
541	109806	20.755180303585	7
541	110363	20.855171142079	7
541	110920	20.955252980609	7
541	111485	21.05524381919	7
541	112042	21.155195657837	7
541	112599	21.255225496561	7
541	113156	21.355255335374	7
541	113713	21.455181174282	7
541	114270	21.555198013297	7
541	114827	21.655214852426	7
541	115384	21.755192691675	7
541	115941	21.855183531052	7
541	116498	21.955187370562	7
541	117063	22.05525621021	7
541	117620	22.155195049999	7
541	118177	22.255224889934	7
541	118734	22.355215730018	7
541	119291	22.455258570253	7
541	119848	22.555210410636	7
541	120405	22.655227251157	7
541	120962	22.755244091796	7
541	121519	22.855234932534	7
541	122076	22.955212773345	7
541	122641	23.05522961421	7
541	123198	23.155207455107	7
541	123755	23.255237296021	7
541	124312	23.355176136931	7
541	124869	23.455166977825	7
541	125426	23.555248818689	7
541	125983	23.655174659511	7
541	126540	23.755191500278	7
541	127097	23.855169340983	7
541	127654	23.955199181616	7
541	128219	24.055203022168	7
541	128776	24.155193862632	7
541	129333	24.255249703001	7
541	129890	24.355188543268	7
541	130447	24.45520538343	7
541	131004	24.555248223484	7
541	131561	24.655252063422	7
541	132118	24.755203903241	7
541	132675	24.855194742942	7
541	133232	24.95517258252	7
541	133797	25.055189421974	7
541	134354	25.155245261311	7
541	134911	25.255184100547	7
541	135468	25.355174939705	7
541	136025	25.455243778807	7
541	136582	25.555208617875	7
541	137139	25.655251456929	7
541	137696	25.75521629599	7
541	138253	25.855259135073	7
541	138810	25.955262974193	7
541	139375	26.055175813365	7
541	139932	26.155205652603	7
541	140489	26.255261491918	7
541	141046	26.355226331321	7
541	141603	26.455178170819	7
541	142160	26.555169010423	7
541	142717	26.655211850141	7
541	143274	26.755202689977	7
541	143831	26.85520652994	7
541	144388	26.955262370034	7
541	144953	27.05521421026	7
541	145510	27.155179050627	7
541	146067	27.255169891136	7
541	146624	27.355199731791	7
541	147181	27.455203572595	7
541	147738	27.555207413545	7
541	148295	27.655185254629	7
541	148852	27.755215095831	7
541	149409	27.855231937128	7
541	149966	27.955222778496	7
541	150531	28.055187619917	7
541	151088	28.155230461367	7
541	151645	28.25518230283	7
541	152202	28.355251144289	7
541	152759	28.455241985727	7
541	153316	28.555219827132	7
541	153873	28.655249668491	7
541	154430	28.755175509791	7
541	154987	28.855205351025	7
541	155544	28.955209192181	7
541	156109	29.055187033251	7
541	156666	29.155164874228	7
541	157223	29.255194715106	7
541	157780	29.355250555878	7
541	158337	29.455228396541	7
541	158894	29.555232237087	7
541	159451	29.655171077515	7
541	160008	29.755252917819	7
541	160565	29.855217757996	7
541	161122	29.955247598046	7
541	161687	30.055186437966	7
541	162244	30.155242277766	7
541	162801	30.255233117462	7
541	163358	30.355262957077	7
541	163915	30.455175796629	7
541	164472	30.555179636142	7
541	165029	30.655222475638	7
541	165586	30.755187315135	7
541	166143	30.855243154649	7
541	166700	30.955259994198	7
541	167265	31.055198833794	7
541	167822	31.155215673449	7
541	168379	31.255245513176	7
541	168936	31.355262352987	7
541	169493	31.455175192887	7
541	170050	31.555231032888	7
541	170607	31.655208872997	7
541	171164	31.755225713219	7
541	171721	31.855164553561	7
541	172278	31.955168394028	7
541	172843	32.055237234625	7
541	173400	32.155254075355	7
541	173957	32.255244916222	7
541	174514	32.355196757231	7
541	175071	32.45517459838	7
541	175628	32.555230439669	7
541	176185	32.65520828109	7
541	176742	32.755186122623	7
541	177299	32.855228964248	7
541	177856	32.955258805941	7
541	178421	33.055184647681	7
541	178978	33.155253489448	7
541	179535	33.255231331222	7
541	180092	33.355261172987	7
541	180649	33.455174014727	7
541	181206	33.555255856429	7
541	181763	33.655259698081	7
541	182320	33.75521153967	7
541	182877	33.855215381187	7
541	183434	33.95519322262	7
541	183999	34.055210063965	7
541	184556	34.155187905212	7
541	185113	34.255230746354	7
541	185670	34.355169587384	7
541	186227	34.455212428299	7
541	186784	34.555203269095	7
541	187341	34.655168109768	7
541	187898	34.755236950312	7
541	188455	34.855201790725	7
541	189012	34.955166631005	7
541	189577	35.055170471152	7
541	190134	35.155187311174	7
541	190691	35.25516515109	7
541	191248	35.355246990919	7
541	191805	35.455250830683	7
541	192362	35.555215670405	7
541	192919	35.655258510107	7
541	193476	35.755262349805	7
541	194033	35.855266189518	7
541	194590	35.955244029263	7
541	195155	36.055260869051	7
541	195712	36.155199708894	7
541	196269	36.255190548807	7
541	196826	36.355168388798	7
541	197383	36.455211228875	7
541	197940	36.555241069049	7
541	198497	36.655205909326	7
541	199054	36.755248749713	7
541	199611	36.855174590216	7
541	200168	36.955204430841	7
541	200733	37.055195271592	7
541	201290	37.155225112473	7
541	201847	37.255241953489	7
541	202404	37.355232794641	7
541	202961	37.455249635932	7
541	203518	37.555227477358	7
541	204075	37.655205318914	7
541	204632	37.755248160579	7
541	205189	37.855187002335	7
541	205746	37.955229844154	7
541	206311	38.055168686017	7
541	206868	38.155224527905	7
541	207425	38.255189369799	7
541	207982	38.355206211681	7
541	208539	38.455249053535	7
541	209096	38.555239895349	7
541	209653	38.655204737108	7
541	210210	38.755169578803	7
541	210767	38.855212420423	7
541	211324	38.955229261958	7
541	211889	39.055181103399	7
541	212446	39.155262944742	7
541	213003	39.255214785976	7
541	213560	39.355257627099	7
541	214117	39.455222468104	7
541	214674	39.555239308987	7
541	215231	39.655191149741	7
541	215788	39.755220990366	7
541	216345	39.855250830858	7
541	216902	39.955189671214	7
541	217467	40.055258511435	7
541	218024	40.155236351528	7
541	218581	40.255188191512	7
541	219138	40.355218031407	7
541	219695	40.455208871239	7
541	220252	40.555186711026	7
541	220809	40.655255550789	7
541	221366	40.755181390549	7
541	221923	40.855198230322	7
541	222480	40.955215070123	7
541	223045	41.055205909966	7
541	223602	41.155222749864	7
541	224159	41.255226589827	7
541	224716	41.355217429868	7
541	225273	41.455208269994	7
541	225830	41.555173110214	7
541	226387	41.655176950535	7
541	226944	41.755258790966	7
541	227501	41.855171631512	7
541	228058	41.955227472176	7
541	228623	42.055231312964	7
541	229180	42.15526115388	7
541	229737	42.255238994929	7
541	230294	42.355255836112	7
541	230851	42.455207677433	7
541	231408	42.55523751889	7
541	231965	42.655254360472	7
541	232522	42.755245202164	7
541	233079	42.855184043942	7
541	233636	42.955239885786	7
541	234201	43.055230727673	7
541	234758	43.155195569582	7
541	235315	43.255251411494	7
541	235872	43.355190253394	7
541	236429	43.455194095268	7
541	236986	43.555236937098	7
541	237543	43.655175778875	7
541	238100	43.755205620585	7
541	238657	43.855170462219	7
541	239214	43.955252303767	7
541	239779	44.05520414522	7
541	240336	44.155194986572	7
541	240893	44.255263827816	7
541	241450	44.355254668946	7
541	242007	44.455258509954	7
541	242564	44.555249350839	7
541	243121	44.655214191597	7
541	243678	44.755205032225	7
541	244235	44.855221872717	7
541	244792	44.955212713072	7
541	245357	45.055242553291	7
541	245914	45.155181393384	7
541	246471	45.255185233365	7
541	247028	45.355189073258	7
541	247585	45.455205913084	7
541	248142	45.555261752867	7
541	248699	45.655252592625	7
541	249256	45.755204432376	7
541	249813	45.85516927214	7
541	250370	45.955264111932	7
541	250935	46.055202951765	7
541	251492	46.155219791651	7
541	252049	46.255184631603	7
541	252606	46.355214471632	7
541	253163	46.455218311747	7
541	253720	46.555196151953	7
541	254277	46.655225992259	7
541	254834	46.755203832675	7
541	255391	46.855168673205	7
541	255948	46.955263513853	7
541	256513	47.055228354624	7
541	257070	47.155219195522	7
541	257627	47.255249036551	7
541	258184	47.355200877714	7
541	258741	47.455191719015	7
541	259298	47.55524756045	7
541	259855	47.655251402012	7
541	260412	47.755190243682	7
541	260969	47.855181085438	7
541	261526	47.95522392726	7
541	262091	48.055240769123	7
541	262648	48.15523161101	7
541	263205	48.255170452899	7
541	263762	48.355239294776	7
541	264319	48.455204136624	7
541	264876	48.55518197843	7
541	265433	48.655263820179	7
541	265990	48.755176661861	7
541	266547	48.855206503466	7
541	267104	48.955197344986	7
541	267669	49.05525318641	7
541	268226	49.155205027733	7
541	268783	49.255247868947	7
541	269340	49.355264710047	7
541	269897	49.455190551028	7
541	270454	49.555220391883	7
541	271011	49.655211232609	7
541	271568	49.755228073204	7
541	272125	49.855205913663	7
541	272682	49.955183753985	7
541	273247	50.055265594169	7
541	273804	50.155191434226	7
541	274361	50.255234274173	7
541	274918	50.355186114031	7
541	275475	50.455228953821	7
541	276032	50.555245793567	7
541	276589	50.655197633291	7
541	277146	50.755214473009	7
541	277703	50.855205312737	7
541	278260	50.955196152494	7
541	278825	51.055264992292	7
541	279382	51.155164832144	7
541	279939	51.25525967206	7
541	280496	51.35517251205	7
541	281053	51.455202352127	7
541	281610	51.555167192296	7
541	282167	51.655210032566	7
541	282724	51.755265872944	7
541	283281	51.855243713433	7
541	283838	51.955169554042	7
541	284403	52.055251394774	7
541	284960	52.155229235634	7
541	285517	52.255233076623	7
541	286074	52.355236917747	7
541	286631	52.455175759007	7
541	287188	52.555179600403	7
541	287745	52.655235441924	7
541	288302	52.755174283553	7
541	288859	52.855165125269	7
541	289416	52.95518196705	7
541	289981	53.055198808872	7
541	290538	53.155241650716	7
541	291095	53.255232492563	7
541	291652	53.355184334397	7
541	292209	53.455227176203	7
541	292766	53.555166017966	7
541	293323	53.655195859675	7
541	293880	53.755238701316	7
541	294437	53.85516454288	7
541	294994	53.955207384359	7
541	295559	54.055172225741	7
541	296116	54.155241067022	7
541	296673	54.255192908194	7
541	297230	54.355196749253	7
541	297787	54.45525259019	7
541	298344	54.555204431002	7
541	298901	54.655234271685	7
541	299458	54.755251112237	7
541	300015	54.855163952654	7
541	300572	54.955219792934	7
541	301137	55.055210633076	7
541	301694	55.15521447309	7
541	302251	55.255257312995	7
541	302808	55.355248152811	7
541	303365	55.455199992559	7
541	303922	55.555242832263	7
541	304479	55.655246671944	7
541	305036	55.755224511618	7
541	305593	55.855241351304	7
541	306150	55.955258191017	7
541	306715	56.055197030771	7
541	307272	56.155213870579	7
541	307829	56.255243710452	7
541	308386	56.355260550399	7
541	308943	56.455264390433	7
541	309500	56.55524223056	7
541	310057	56.655181070787	7
541	310614	56.755262911122	7
541	311171	56.855240751569	7
541	311728	56.955231592134	7
541	312293	57.055222432823	7
541	312850	57.155187273639	7
541	313407	57.255243114587	7
541	313964	57.355194955668	7
541	314521	57.455237796884	7
541	315078	57.555189638236	7
541	315635	57.655167479714	7
541	316192	57.7552623213	7
541	316749	57.855253162973	7
541	317306	57.955244004709	7
541	317871	58.055195846489	7
541	318428	58.155186688291	7
541	318985	58.255216530096	7
541	319542	58.355168371889	7
541	320099	58.455224213652	7
541	320656	58.555176055374	7
541	321213	58.65517989704	7
541	321770	58.755196738639	7
541	322327	58.855174580159	7
541	322884	58.955230421595	7
541	323449	59.055247262937	7
541	324006	59.155186104176	7
541	324563	59.255202945305	7
541	325120	59.355245786321	7
541	325677	59.455197627217	7
541	326234	59.555227467988	7
541	326791	59.655231308629	7
541	327348	59.755183149138	7
541	327905	59.855264989514	7
541	328462	59.955216829752	7
540	5115	2	0
540	10685	3	0
540	16253	4	0
540	21822	5	0
540	27399	6	0
540	32977	7	0
540	38555	8	0
540	44133	9	0
540	49711	10	0
540	55289	11	0
540	60867	12	0
540	66445	13	0
540	72023	14	0
540	77601	15	0
540	83179	16	0
540	88757	17	0
540	94335	18	0
540	99913	19	0
540	105491	20	0
540	111069	21	0
540	116647	22	0
540	122225	23	0
540	127803	24	0
540	133381	25	0
540	138959	26	0
540	144537	27	0
540	150115	28	0
540	155693	29	0
540	161271	30	0
540	166849	31	0
540	172427	32	0
540	178005	33	0
540	183583	34	0
540	189161	35	0
540	194739	36	0
540	200317	37	0
540	205895	38	0
540	211473	39	0
540	217051	40	0
540	222629	41	0
540	228207	42	0
540	233785	43	0
540	239363	44	0
540	244941	45	0
540	250519	46	0
540	256097	47	0
540	261675	48	0
540	267253	49	0
540	272831	50	0
540	278409	51	0
540	283987	52	0
540	289565	53	0
540	295143	54	0
540	300721	55	0
540	306299	56	0
540	311877	57	0
540	317455	58	0
540	323033	59	0
540	328611	60	0
539	5115	2	0.034729
539	10685	3	0.03969
539	16253	4	0.03969
539	21822	5	0.03969
539	27399	6	0.03969
539	32977	7	0.03969
539	38555	8	0.03969
539	44133	9	0.03969
539	49711	10	0.03969
539	55289	11	0.03969
539	60867	12	0.03969
539	66445	13	0.03969
539	72023	14	0.03969
539	77601	15	0.03969
539	83179	16	0.03969
539	88757	17	0.03969
539	94335	18	0.03969
539	99913	19	0.03969
539	105491	20	0.03969
539	111069	21	0.03969
539	116647	22	0.03969
539	122225	23	0.03969
539	127803	24	0.03969
539	133381	25	0.03969
539	138959	26	0.03969
539	144537	27	0.03969
539	150115	28	0.03969
539	155693	29	0.03969
539	161271	30	0.03969
539	166849	31	0.03969
539	172427	32	0.03969
539	178005	33	0.03969
539	183583	34	0.03969
539	189161	35	0.03969
539	194739	36	0.03969
539	200317	37	0.03969
539	205895	38	0.03969
539	211473	39	0.03969
539	217051	40	0.03969
539	222629	41	0.03969
539	228207	42	0.03969
539	233785	43	0.03969
539	239363	44	0.03969
539	244941	45	0.03969
539	250519	46	0.03969
539	256097	47	0.03969
539	261675	48	0.03969
539	267253	49	0.03969
539	272831	50	0.03969
539	278409	51	0.03969
539	283987	52	0.03969
539	289565	53	0.03969
539	295143	54	0.03969
539	300721	55	0.03969
539	306299	56	0.03969
539	311877	57	0.03969
539	317455	58	0.03969
539	323033	59	0.03969
539	328611	60	0.03969
538	5115	2	7
538	10685	3	7
538	16253	4	7
538	21822	5	7
538	27399	6	7
538	32977	7	7
538	38555	8	7
538	44133	9	7
538	49711	10	7
538	55289	11	7
538	60867	12	7
538	66445	13	7
538	72023	14	7
538	77601	15	7
538	83179	16	7
538	88757	17	7
538	94335	18	7
538	99913	19	7
538	105491	20	7
538	111069	21	7
538	116647	22	7
538	122225	23	7
538	127803	24	7
538	133381	25	7
538	138959	26	7
538	144537	27	7
538	150115	28	7
538	155693	29	7
538	161271	30	7
538	166849	31	7
538	172427	32	7
538	178005	33	7
538	183583	34	7
538	189161	35	7
538	194739	36	7
538	200317	37	7
538	205895	38	7
538	211473	39	7
538	217051	40	7
538	222629	41	7
538	228207	42	7
538	233785	43	7
538	239363	44	7
538	244941	45	7
538	250519	46	7
538	256097	47	7
538	261675	48	7
538	267253	49	7
538	272831	50	7
538	278409	51	7
538	283987	52	7
538	289565	53	7
538	295143	54	7
538	300721	55	7
538	306299	56	7
538	311877	57	7
538	317455	58	7
538	323033	59	7
538	328611	60	7
