version 2
run SinusoidalActDelayNoGui-3-20210427-18:08:18-5302
attr actDelay 2
attr beaconInterval 0.1
attr configname SinusoidalActDelayNoGui
attr controller 1
attr datetime 20210427-18:08:18
attr experiment SinusoidalActDelayNoGui
attr headway 0.1
attr inifile omnetpp.ini
attr iterationvars "$actDelay=2, $packetLossRate=0, $beaconInterval=0.1, $controller=1, $sController=\"CACC\", $headway=0.1, $0=5, $1=0, $nCars=8, $platoonSize=8, $nLanes=1, $ploegH=0.5, $leaderHeadway=1.2, $leaderSpeed=100, $packetSize=200"
attr iterationvarsf actDelay=2,packetLossRate=0,beaconInterval=0.1,controller=1,sController=CACC,headway=0.1,5,0,nCars=8,platoonSize=8,nLanes=1,ploegH=0.5,leaderHeadway=1.2,leaderSpeed=100,packetSize=200-
attr leaderHeadway 1.2
attr leaderSpeed 100
attr measurement "$actDelay=2, $packetLossRate=0, $beaconInterval=0.1, $controller=1, $sController=\"CACC\", $headway=0.1, $0=5, $1=0, $nCars=8, $platoonSize=8, $nLanes=1, $ploegH=0.5, $leaderHeadway=1.2, $leaderSpeed=100, $packetSize=200"
attr nCars 8
attr nLanes 1
attr network Highway
attr packetLossRate 0
attr packetSize 200
attr platoonSize 8
attr ploegH 0.5
attr processid 5302
attr repetition 0
attr replication #0
attr resultdir results
attr runnumber 3
attr sController "\"CACC\""
attr seedset 0
param **.coreDebug false
param **.debug false
param **.headway 0.1s
param **.numberOfCars 8
param **.numberOfCarsPerPlatoon 8
param **.numberOfLanes 1
param **.numericController 1
param **.seed 0
param **.traffic.nCars 8
param **.traffic.nLanes 1
param **.traffic.platoonInsertDistance 5m
param **.traffic.platoonInsertHeadway 0s
param **.traffic.platoonInsertSpeed 100kmph
param **.traffic.platoonInsertTime "1 s"
param **.traffic.platoonLeaderHeadway 1.2s
param **.traffic.platoonSize 8
param **.traffic.platooningVType "\"vtypeauto\""
param **.traffic_type "\"PlatoonsTrafficManager\""
param *.**.nic.mac1609_4.bitrate 6Mbps
param *.**.nic.mac1609_4.txPower "100 mW"
param *.**.nic.mac1609_4.useServiceChannel false
param *.**.nic.phy80211p.analogueModels "xmldoc(\"config.xml\")"
param *.**.nic.phy80211p.decider "xmldoc(\"config.xml\")"
param *.**.nic.phy80211p.maxTXPower "100 mW"
param *.**.nic.phy80211p.sensitivity -94dBm
param *.**.nic.phy80211p.thermalNoise "-95 dBm"
param *.**.nic.phy80211p.usePropagationDelay true
param *.**.nic.phy80211p.useThermalNoise true
param *.annotations.draw false
param *.connectionManager.drawMaxIntfDist false
param *.connectionManager.maxInterfDist 2600m
param *.connectionManager.sendDirect true
param *.manager.autoShutdown true
param *.manager.configFile "\"./sumocfg/freeway.sumo.cfg\""
param *.manager.host "\"localhost\""
param *.manager.margin 25
param *.manager.moduleDisplayString "\"\""
param *.manager.moduleName "\"node\""
param *.manager.moduleType "\"org.car2x.veins.modules.application.platooning.PlatoonCar\""
param *.manager.updateInterval 0.01s
param *.manager.useGui true
param *.node[*].appl_type "\"SimplePlatooningApp\""
param *.node[*].helper.nCars 8
param *.node[*].helper.nLanes 1
param *.node[*].helper.platoonSize 8
param *.node[*].helper_type "\"PositionHelper\""
param *.node[*].mobility.x 0
param *.node[*].mobility.y 0
param *.node[*].mobility.z 1.895
param *.node[*].prot.beaconingInterval 0.1s
param *.node[*].prot.packetSize 200
param *.node[*].prot.priority 4
param *.node[*].protocol_type "\"SimplePlatooningBeaconing\""
param *.node[*].scenario.accHeadway 0.1s
param *.node[*].scenario.caccC1 0.5
param *.node[*].scenario.caccOmegaN "0.2 Hz"
param *.node[*].scenario.caccXi 1
param *.node[*].scenario.controller "\"CACC\""
param *.node[*].scenario.engineTau 2s
param *.node[*].scenario.leaderHeadway 1.2s
param *.node[*].scenario.leaderOscillationFrequency "0.2 Hz"
param *.node[*].scenario.leaderSpeed 100kmph
param *.node[*].scenario.oscillationAmplitude "35 kmph"
param *.node[*].scenario.ploegH 0.5s
param *.node[*].scenario.ploegKd 0.7
param *.node[*].scenario.ploegKp 0.2
param *.node[*].scenario.startOscillating "5 s"
param *.node[*].scenario.useControllerAcceleration true
param *.node[*].scenario.useRealisticEngine false
param *.node[*].scenario_type "\"SinusoidalScenario\""
param *.node[*].unicast.packetLossRate 0
param *.obstacles.debug false
param *.playgroundSizeX 65000m
param *.playgroundSizeY 25000m
param *.playgroundSizeZ 50m
param *.world.use2D false
param *.world.useTorus false

vector 553  Highway.node[0].appl  distance  ETV
vector 554  Highway.node[0].appl  relativeSpeed  ETV
vector 555  Highway.node[0].appl  nodeId  ETV
vector 559  Highway.node[0].appl  acceleration  ETV
vector 560  Highway.node[0].appl  controllerAcceleration  ETV
vector 556  Highway.node[0].appl  speed  ETV
vector 557  Highway.node[0].appl  posx  ETV
vector 558  Highway.node[0].appl  posy  ETV
vector 576  Highway.node[1].appl  distance  ETV
vector 577  Highway.node[1].appl  relativeSpeed  ETV
vector 578  Highway.node[1].appl  nodeId  ETV
vector 582  Highway.node[1].appl  acceleration  ETV
vector 583  Highway.node[1].appl  controllerAcceleration  ETV
vector 579  Highway.node[1].appl  speed  ETV
vector 580  Highway.node[1].appl  posx  ETV
vector 581  Highway.node[1].appl  posy  ETV
vector 599  Highway.node[2].appl  distance  ETV
vector 600  Highway.node[2].appl  relativeSpeed  ETV
vector 601  Highway.node[2].appl  nodeId  ETV
vector 605  Highway.node[2].appl  acceleration  ETV
vector 606  Highway.node[2].appl  controllerAcceleration  ETV
vector 602  Highway.node[2].appl  speed  ETV
vector 603  Highway.node[2].appl  posx  ETV
vector 604  Highway.node[2].appl  posy  ETV
vector 622  Highway.node[3].appl  distance  ETV
vector 623  Highway.node[3].appl  relativeSpeed  ETV
vector 624  Highway.node[3].appl  nodeId  ETV
vector 628  Highway.node[3].appl  acceleration  ETV
vector 629  Highway.node[3].appl  controllerAcceleration  ETV
vector 625  Highway.node[3].appl  speed  ETV
vector 626  Highway.node[3].appl  posx  ETV
vector 627  Highway.node[3].appl  posy  ETV
vector 645  Highway.node[4].appl  distance  ETV
vector 646  Highway.node[4].appl  relativeSpeed  ETV
vector 647  Highway.node[4].appl  nodeId  ETV
vector 651  Highway.node[4].appl  acceleration  ETV
vector 652  Highway.node[4].appl  controllerAcceleration  ETV
vector 648  Highway.node[4].appl  speed  ETV
vector 649  Highway.node[4].appl  posx  ETV
vector 650  Highway.node[4].appl  posy  ETV
vector 668  Highway.node[5].appl  distance  ETV
vector 669  Highway.node[5].appl  relativeSpeed  ETV
vector 670  Highway.node[5].appl  nodeId  ETV
vector 674  Highway.node[5].appl  acceleration  ETV
vector 675  Highway.node[5].appl  controllerAcceleration  ETV
vector 671  Highway.node[5].appl  speed  ETV
vector 672  Highway.node[5].appl  posx  ETV
vector 673  Highway.node[5].appl  posy  ETV
vector 691  Highway.node[6].appl  distance  ETV
vector 692  Highway.node[6].appl  relativeSpeed  ETV
vector 693  Highway.node[6].appl  nodeId  ETV
vector 697  Highway.node[6].appl  acceleration  ETV
vector 698  Highway.node[6].appl  controllerAcceleration  ETV
vector 694  Highway.node[6].appl  speed  ETV
vector 695  Highway.node[6].appl  posx  ETV
vector 696  Highway.node[6].appl  posy  ETV
vector 714  Highway.node[7].appl  distance  ETV
vector 715  Highway.node[7].appl  relativeSpeed  ETV
vector 716  Highway.node[7].appl  nodeId  ETV
vector 720  Highway.node[7].appl  acceleration  ETV
vector 721  Highway.node[7].appl  controllerAcceleration  ETV
vector 717  Highway.node[7].appl  speed  ETV
vector 718  Highway.node[7].appl  posx  ETV
vector 719  Highway.node[7].appl  posy  ETV
vector 636  Highway.node[3].prot  frontDelay  ETV
vector 634  Highway.node[3].prot  frontDelayId  ETV
vector 613  Highway.node[2].prot  frontDelay  ETV
vector 611  Highway.node[2].prot  frontDelayId  ETV
vector 728  Highway.node[7].prot  frontDelay  ETV
vector 726  Highway.node[7].prot  frontDelayId  ETV
vector 589  Highway.node[1].prot  leaderDelay  ETV
vector 587  Highway.node[1].prot  leaderDelayId  ETV
vector 590  Highway.node[1].prot  frontDelay  ETV
vector 588  Highway.node[1].prot  frontDelayId  ETV
vector 612  Highway.node[2].prot  leaderDelay  ETV
vector 610  Highway.node[2].prot  leaderDelayId  ETV
vector 635  Highway.node[3].prot  leaderDelay  ETV
vector 633  Highway.node[3].prot  leaderDelayId  ETV
vector 658  Highway.node[4].prot  leaderDelay  ETV
vector 656  Highway.node[4].prot  leaderDelayId  ETV
vector 681  Highway.node[5].prot  leaderDelay  ETV
vector 679  Highway.node[5].prot  leaderDelayId  ETV
vector 704  Highway.node[6].prot  leaderDelay  ETV
vector 702  Highway.node[6].prot  leaderDelayId  ETV
vector 727  Highway.node[7].prot  leaderDelay  ETV
vector 725  Highway.node[7].prot  leaderDelayId  ETV
vector 682  Highway.node[5].prot  frontDelay  ETV
vector 680  Highway.node[5].prot  frontDelayId  ETV
vector 659  Highway.node[4].prot  frontDelay  ETV
vector 657  Highway.node[4].prot  frontDelayId  ETV
vector 705  Highway.node[6].prot  frontDelay  ETV
vector 703  Highway.node[6].prot  frontDelayId  ETV
vector 561  Highway.node[0].prot  nodeId  ETV
vector 562  Highway.node[0].prot  busyTime  ETV
vector 563  Highway.node[0].prot  collisions  ETV
vector 584  Highway.node[1].prot  nodeId  ETV
vector 585  Highway.node[1].prot  busyTime  ETV
vector 586  Highway.node[1].prot  collisions  ETV
vector 607  Highway.node[2].prot  nodeId  ETV
vector 608  Highway.node[2].prot  busyTime  ETV
vector 609  Highway.node[2].prot  collisions  ETV
vector 630  Highway.node[3].prot  nodeId  ETV
vector 631  Highway.node[3].prot  busyTime  ETV
vector 632  Highway.node[3].prot  collisions  ETV
vector 653  Highway.node[4].prot  nodeId  ETV
vector 654  Highway.node[4].prot  busyTime  ETV
vector 655  Highway.node[4].prot  collisions  ETV
vector 676  Highway.node[5].prot  nodeId  ETV
vector 677  Highway.node[5].prot  busyTime  ETV
vector 678  Highway.node[5].prot  collisions  ETV
vector 699  Highway.node[6].prot  nodeId  ETV
vector 700  Highway.node[6].prot  busyTime  ETV
vector 701  Highway.node[6].prot  collisions  ETV
vector 722  Highway.node[7].prot  nodeId  ETV
vector 723  Highway.node[7].prot  busyTime  ETV
vector 724  Highway.node[7].prot  collisions  ETV
560	233	1.11	-0.00219611
560	790	1.21	-0.00218183
560	1346	1.31	-0.00215763
560	1903	1.41	-0.00212412
560	2460	1.51	-0.00208191
560	3016	1.61	-0.00203163
560	3572	1.71	-0.00197391
560	4129	1.81	-0.0019094
560	4685	1.91	-0.00183875
560	5252	2.01	-0.00176259
560	5808	2.11	-0.00168156
560	6364	2.21	-0.0015963
560	6920	2.31	-0.00150742
560	7476	2.41	-0.00141554
560	8032	2.51	-0.00132124
560	8588	2.61	-0.00122511
560	9144	2.71	-0.00112769
560	9700	2.81	-0.00102953
560	10256	2.91	-0.000931138
560	10820	3.01	-0.000833005
560	11376	3.11	-0.000735595
560	11932	3.21	-0.000639347
560	12488	3.31	-0.000544672
560	13044	3.41	-0.000451955
560	13600	3.51	-0.000361551
560	14156	3.61	-0.000273787
560	14712	3.71	-0.000188961
560	15268	3.81	-0.000107343
560	15824	3.91	-2.91739e-05
560	16388	4.01	4.53339e-05
560	16944	4.11	0.000115996
560	17500	4.21	0.000182657
560	18056	4.31	0.000245186
560	18612	4.41	0.00030348
560	19168	4.51	0.000357462
560	19724	4.61	0.00040708
560	20280	4.71	0.000452304
560	20836	4.81	0.000493128
560	21392	4.91	0.000529567
560	21957	5.01	0.000561659
560	22514	5.11	1.21909
560	23071	5.21	1.5
560	23628	5.31	1.5
560	24185	5.41	1.5
560	24742	5.51	1.5
560	25299	5.61	1.5
560	25856	5.71	1.5
560	26413	5.81	1.5
560	26970	5.91	1.5
560	27535	6.01	1.5
560	28092	6.11	1.5
560	28649	6.21	1.5
560	29206	6.31	1.5
560	29763	6.41	1.5
560	30320	6.51	1.5
560	30877	6.61	1.5
560	31434	6.71	1.5
560	31991	6.81	1.5
560	32548	6.91	1.5
560	33113	7.01	1.5
560	33670	7.11	1.5
560	34227	7.21	1.5
560	34784	7.31	1.13595
560	35341	7.41	-0.163098
560	35898	7.51	-1.4783
560	36455	7.61	-1.5
560	37012	7.71	-1.5
560	37569	7.81	-1.5
560	38126	7.91	-1.5
560	38691	8.01	-1.5
560	39248	8.11	-1.5
560	39805	8.21	-1.5
560	40362	8.31	-1.5
560	40919	8.41	-1.5
560	41476	8.51	-1.5
560	42033	8.61	-1.5
560	42590	8.71	-1.5
560	43147	8.81	-1.5
560	43704	8.91	-1.5
560	44269	9.01	-1.5
560	44826	9.11	-1.5
560	45383	9.21	-1.5
560	45940	9.31	-1.5
560	46497	9.41	-1.5
560	47054	9.51	-1.5
560	47611	9.61	-1.5
560	48168	9.71	-1.5
560	48725	9.81	-1.5
560	49282	9.91	-1.5
560	49847	10.01	-1.20663
560	50404	10.11	0.0927596
560	50961	10.21	1.37121
560	51518	10.31	1.5
560	52075	10.41	1.5
560	52632	10.51	1.5
560	53189	10.61	1.5
560	53746	10.71	1.5
560	54303	10.81	1.5
560	54860	10.91	1.5
560	55425	11.01	1.5
560	55982	11.11	1.5
560	56539	11.21	1.5
560	57096	11.31	1.5
560	57653	11.41	1.5
560	58210	11.51	1.5
560	58767	11.61	1.5
560	59324	11.71	1.5
560	59881	11.81	1.5
560	60438	11.91	1.5
560	61003	12.01	1.5
560	61560	12.11	1.5
560	62117	12.21	1.5
560	62674	12.31	1.17531
560	63231	12.41	-0.0953674
560	63788	12.51	-1.38391
560	64345	12.61	-1.5
560	64902	12.71	-1.5
560	65459	12.81	-1.5
560	66016	12.91	-1.5
560	66581	13.01	-1.5
560	67138	13.11	-1.5
560	67695	13.21	-1.5
560	68252	13.31	-1.5
560	68809	13.41	-1.5
560	69366	13.51	-1.5
560	69923	13.61	-1.5
560	70480	13.71	-1.5
560	71037	13.81	-1.5
560	71594	13.91	-1.5
560	72159	14.01	-1.5
560	72716	14.11	-1.5
560	73273	14.21	-1.5
560	73830	14.31	-1.5
560	74387	14.41	-1.5
560	74944	14.51	-1.5
560	75501	14.61	-1.5
560	76058	14.71	-1.5
560	76615	14.81	-1.5
560	77172	14.91	-1.5
560	77737	15.01	-0.749457
560	78294	15.11	0.555813
560	78851	15.21	1.5
560	79408	15.31	1.5
560	79965	15.41	1.5
560	80522	15.51	1.5
560	81079	15.61	1.5
560	81636	15.71	1.5
560	82193	15.81	1.5
560	82750	15.91	1.5
560	83315	16.01	1.5
560	83872	16.11	1.5
560	84429	16.21	1.5
560	84986	16.31	1.5
560	85543	16.41	1.5
560	86100	16.51	1.5
560	86657	16.61	1.5
560	87214	16.71	1.5
560	87771	16.81	1.5
560	88328	16.91	1.5
560	88893	17.01	1.5
560	89450	17.11	1.5
560	90007	17.21	1.5
560	90564	17.31	1.5
560	91121	17.41	0.39345
560	91678	17.51	-0.897536
560	92235	17.61	-1.5
560	92792	17.71	-1.5
560	93349	17.81	-1.5
560	93906	17.91	-1.5
560	94471	18.01	-1.5
560	95028	18.11	-1.5
560	95585	18.21	-1.5
560	96142	18.31	-1.5
560	96699	18.41	-1.5
560	97256	18.51	-1.5
560	97813	18.61	-1.5
560	98370	18.71	-1.5
560	98927	18.81	-1.5
560	99484	18.91	-1.5
560	100049	19.01	-1.5
560	100606	19.11	-1.5
560	101163	19.21	-1.5
560	101720	19.31	-1.5
560	102277	19.41	-1.5
560	102834	19.51	-1.5
560	103391	19.61	-1.5
560	103948	19.71	-1.5
560	104505	19.81	-1.5
560	105062	19.91	-1.5
560	105627	20.01	-0.346791
560	106184	20.11	0.955731
560	106741	20.21	1.5
560	107298	20.31	1.5
560	107855	20.41	1.5
560	108412	20.51	1.5
560	108969	20.61	1.5
560	109526	20.71	1.5
560	110083	20.81	1.5
560	110640	20.91	1.5
560	111205	21.01	1.5
560	111762	21.11	1.5
560	112319	21.21	1.5
560	112876	21.31	1.5
560	113433	21.41	1.5
560	113990	21.51	1.5
560	114547	21.61	1.5
560	115104	21.71	1.5
560	115661	21.81	1.5
560	116218	21.91	1.5
560	116783	22.01	1.5
560	117340	22.11	1.5
560	117897	22.21	1.5
560	118454	22.31	1.5
560	119011	22.41	0.717619
560	119568	22.51	-0.575976
560	120125	22.61	-1.5
560	120682	22.71	-1.5
560	121239	22.81	-1.5
560	121796	22.91	-1.5
560	122361	23.01	-1.5
560	122918	23.11	-1.5
560	123475	23.21	-1.5
560	124032	23.31	-1.5
560	124589	23.41	-1.5
560	125146	23.51	-1.5
560	125703	23.61	-1.5
560	126260	23.71	-1.5
560	126817	23.81	-1.5
560	127374	23.91	-1.5
560	127939	24.01	-1.5
560	128496	24.11	-1.5
560	129053	24.21	-1.5
560	129610	24.31	-1.5
560	130167	24.41	-1.5
560	130724	24.51	-1.5
560	131281	24.61	-1.5
560	131838	24.71	-1.5
560	132395	24.81	-1.5
560	132952	24.91	-1.39544
560	133517	25.01	-0.0947461
560	134074	25.11	1.20506
560	134631	25.21	1.5
560	135188	25.31	1.5
560	135745	25.41	1.5
560	136302	25.51	1.5
560	136859	25.61	1.5
560	137416	25.71	1.5
560	137973	25.81	1.5
560	138530	25.91	1.5
560	139095	26.01	1.5
560	139652	26.11	1.5
560	140209	26.21	1.5
560	140766	26.31	1.5
560	141323	26.41	1.5
560	141880	26.51	1.5
560	142437	26.61	1.5
560	142994	26.71	1.5
560	143551	26.81	1.5
560	144108	26.91	1.5
560	144673	27.01	1.5
560	145230	27.11	1.5
560	145787	27.21	1.5
560	146344	27.31	1.5
560	146901	27.41	0.906305
560	147458	27.51	-0.389182
560	148015	27.61	-1.5
560	148572	27.71	-1.5
560	149129	27.81	-1.5
560	149686	27.91	-1.5
560	150251	28.01	-1.5
560	150808	28.11	-1.5
560	151365	28.21	-1.5
560	151922	28.31	-1.5
560	152479	28.41	-1.5
560	153036	28.51	-1.5
560	153593	28.61	-1.5
560	154150	28.71	-1.5
560	154707	28.81	-1.5
560	155264	28.91	-1.5
560	155829	29.01	-1.5
560	156386	29.11	-1.5
560	156943	29.21	-1.5
560	157500	29.31	-1.5
560	158057	29.41	-1.5
560	158614	29.51	-1.5
560	159171	29.61	-1.5
560	159728	29.71	-1.5
560	160285	29.81	-1.5
560	160842	29.91	-1.25315
560	161407	30.01	0.0462233
560	161964	30.11	1.34408
560	162521	30.21	1.5
560	163078	30.31	1.5
560	163635	30.41	1.5
560	164192	30.51	1.5
560	164749	30.61	1.5
560	165306	30.71	1.5
560	165863	30.81	1.5
560	166420	30.91	1.5
560	166985	31.01	1.5
560	167542	31.11	1.5
560	168099	31.21	1.5
560	168656	31.31	1.5
560	169213	31.41	1.5
560	169770	31.51	1.5
560	170327	31.61	1.5
560	170884	31.71	1.5
560	171441	31.81	1.5
560	171998	31.91	1.5
560	172563	32.01	1.5
560	173120	32.11	1.5
560	173677	32.21	1.5
560	174234	32.31	1.5
560	174791	32.41	1.00574
560	175348	32.51	-0.290916
560	175905	32.61	-1.5
560	176462	32.71	-1.5
560	177019	32.81	-1.5
560	177576	32.91	-1.5
560	178141	33.01	-1.5
560	178698	33.11	-1.5
560	179255	33.21	-1.5
560	179812	33.31	-1.5
560	180369	33.41	-1.5
560	180926	33.51	-1.5
560	181483	33.61	-1.5
560	182040	33.71	-1.5
560	182597	33.81	-1.5
560	183154	33.91	-1.5
560	183719	34.01	-1.5
560	184276	34.11	-1.5
560	184833	34.21	-1.5
560	185390	34.31	-1.5
560	185947	34.41	-1.5
560	186504	34.51	-1.5
560	187061	34.61	-1.5
560	187618	34.71	-1.5
560	188175	34.81	-1.5
560	188732	34.91	-1.18067
560	189297	35.01	0.117959
560	189854	35.11	1.41476
560	190411	35.21	1.5
560	190968	35.31	1.5
560	191525	35.41	1.5
560	192082	35.51	1.5
560	192639	35.61	1.5
560	193196	35.71	1.5
560	193753	35.81	1.5
560	194310	35.91	1.5
560	194875	36.01	1.5
560	195432	36.11	1.5
560	195989	36.21	1.5
560	196546	36.31	1.5
560	197103	36.41	1.5
560	197660	36.51	1.5
560	198217	36.61	1.5
560	198774	36.71	1.5
560	199331	36.81	1.5
560	199888	36.91	1.5
560	200453	37.01	1.5
560	201010	37.11	1.5
560	201567	37.21	1.5
560	202124	37.31	1.5
560	202681	37.41	1.05544
560	203238	37.51	-0.241828
560	203795	37.61	-1.5
560	204352	37.71	-1.5
560	204909	37.81	-1.5
560	205466	37.91	-1.5
560	206031	38.01	-1.5
560	206588	38.11	-1.5
560	207145	38.21	-1.5
560	207702	38.31	-1.5
560	208259	38.41	-1.5
560	208816	38.51	-1.5
560	209373	38.61	-1.5
560	209930	38.71	-1.5
560	210487	38.81	-1.5
560	211044	38.91	-1.5
560	211609	39.01	-1.5
560	212166	39.11	-1.5
560	212723	39.21	-1.5
560	213280	39.31	-1.5
560	213837	39.41	-1.5
560	214394	39.51	-1.5
560	214951	39.61	-1.5
560	215508	39.71	-1.5
560	216065	39.81	-1.5
560	216622	39.91	-1.14484
560	217187	40.01	0.153414
560	217744	40.11	1.44968
560	218301	40.21	1.5
560	218858	40.31	1.5
560	219415	40.41	1.5
560	219972	40.51	1.5
560	220529	40.61	1.5
560	221086	40.71	1.5
560	221643	40.81	1.5
560	222200	40.91	1.5
560	222765	41.01	1.5
560	223322	41.11	1.5
560	223879	41.21	1.5
560	224436	41.31	1.5
560	224993	41.41	1.5
560	225550	41.51	1.5
560	226107	41.61	1.5
560	226664	41.71	1.5
560	227221	41.81	1.5
560	227778	41.91	1.5
560	228343	42.01	1.5
560	228900	42.11	1.5
560	229457	42.21	1.5
560	230014	42.31	1.5
560	230571	42.41	1.07999
560	231128	42.51	-0.217585
560	231685	42.61	-1.5
560	232242	42.71	-1.5
560	232799	42.81	-1.5
560	233356	42.91	-1.5
560	233921	43.01	-1.5
560	234478	43.11	-1.5
560	235035	43.21	-1.5
560	235592	43.31	-1.5
560	236149	43.41	-1.5
560	236706	43.51	-1.5
560	237263	43.61	-1.5
560	237820	43.71	-1.5
560	238377	43.81	-1.5
560	238934	43.91	-1.5
560	239499	44.01	-1.5
560	240056	44.11	-1.5
560	240613	44.21	-1.5
560	241170	44.31	-1.5
560	241727	44.41	-1.5
560	242284	44.51	-1.5
560	242841	44.61	-1.5
560	243398	44.71	-1.5
560	243955	44.81	-1.5
560	244512	44.91	-1.12714
560	245077	45.01	0.17092
560	245634	45.11	1.46692
560	246191	45.21	1.5
560	246748	45.31	1.5
560	247305	45.41	1.5
560	247862	45.51	1.5
560	248419	45.61	1.5
560	248976	45.71	1.5
560	249533	45.81	1.5
560	250090	45.91	1.5
560	250655	46.01	1.5
560	251212	46.11	1.5
560	251769	46.21	1.5
560	252326	46.31	1.5
560	252883	46.41	1.5
560	253440	46.51	1.5
560	253997	46.61	1.5
560	254554	46.71	1.5
560	255111	46.81	1.5
560	255668	46.91	1.5
560	256233	47.01	1.5
560	256790	47.11	1.5
560	257347	47.21	1.5
560	257904	47.31	1.5
560	258461	47.41	1.09247
560	259018	47.51	-0.205248
560	259575	47.61	-1.5
560	260132	47.71	-1.5
560	260689	47.81	-1.5
560	261246	47.91	-1.5
560	261811	48.01	-1.5
560	262368	48.11	-1.5
560	262925	48.21	-1.5
560	263482	48.31	-1.5
560	264039	48.41	-1.5
560	264596	48.51	-1.5
560	265153	48.61	-1.5
560	265710	48.71	-1.5
560	266267	48.81	-1.5
560	266824	48.91	-1.5
560	267389	49.01	-1.5
560	267946	49.11	-1.5
560	268503	49.21	-1.5
560	269060	49.31	-1.5
560	269617	49.41	-1.5
560	270174	49.51	-1.5
560	270731	49.61	-1.5
560	271288	49.71	-1.5
560	271845	49.81	-1.5
560	272402	49.91	-1.11797
560	272967	50.01	0.179999
560	273524	50.11	1.47587
560	274081	50.21	1.5
560	274638	50.31	1.5
560	275195	50.41	1.5
560	275752	50.51	1.5
560	276309	50.61	1.5
560	276866	50.71	1.5
560	277423	50.81	1.5
560	277980	50.91	1.5
560	278545	51.01	1.5
560	279102	51.11	1.5
560	279659	51.21	1.5
560	280216	51.31	1.5
560	280773	51.41	1.5
560	281330	51.51	1.5
560	281887	51.61	1.5
560	282444	51.71	1.5
560	283001	51.81	1.5
560	283558	51.91	1.5
560	284123	52.01	1.5
560	284680	52.11	1.5
560	285237	52.21	1.5
560	285794	52.31	1.5
560	286351	52.41	1.09911
560	286908	52.51	-0.198671
560	287465	52.61	-1.49427
560	288022	52.71	-1.5
560	288579	52.81	-1.5
560	289136	52.91	-1.5
560	289701	53.01	-1.5
560	290258	53.11	-1.5
560	290815	53.21	-1.5
560	291372	53.31	-1.5
560	291929	53.41	-1.5
560	292486	53.51	-1.5
560	293043	53.61	-1.5
560	293600	53.71	-1.5
560	294157	53.81	-1.5
560	294714	53.91	-1.5
560	295279	54.01	-1.5
560	295836	54.11	-1.5
560	296393	54.21	-1.5
560	296950	54.31	-1.5
560	297507	54.41	-1.5
560	298064	54.51	-1.5
560	298621	54.61	-1.5
560	299178	54.71	-1.5
560	299735	54.81	-1.5
560	300292	54.91	-1.11305
560	300857	55.01	0.184875
560	301414	55.11	1.48068
560	301971	55.21	1.5
560	302528	55.31	1.5
560	303085	55.41	1.5
560	303642	55.51	1.5
560	304199	55.61	1.5
560	304756	55.71	1.5
560	305313	55.81	1.5
560	305870	55.91	1.5
560	306435	56.01	1.5
560	306992	56.11	1.5
560	307549	56.21	1.5
560	308106	56.31	1.5
560	308663	56.41	1.5
560	309220	56.51	1.5
560	309777	56.61	1.5
560	310334	56.71	1.5
560	310891	56.81	1.5
560	311448	56.91	1.5
560	312013	57.01	1.5
560	312570	57.11	1.5
560	313127	57.21	1.5
560	313684	57.31	1.5
560	314241	57.41	1.10273
560	314798	57.51	-0.195093
560	315355	57.61	-1.49075
560	315912	57.71	-1.5
560	316469	57.81	-1.5
560	317026	57.91	-1.5
560	317591	58.01	-1.5
560	318148	58.11	-1.5
560	318705	58.21	-1.5
560	319262	58.31	-1.5
560	319819	58.41	-1.5
560	320376	58.51	-1.5
560	320933	58.61	-1.5
560	321490	58.71	-1.5
560	322047	58.81	-1.5
560	322604	58.91	-1.5
560	323169	59.01	-1.5
560	323726	59.11	-1.5
560	324283	59.21	-1.5
560	324840	59.31	-1.5
560	325397	59.41	-1.5
560	325954	59.51	-1.5
560	326511	59.61	-1.5
560	327068	59.71	-1.5
560	327625	59.81	-1.5
560	328182	59.91	-1.11036
559	233	1.11	-9.65055e-05
559	790	1.21	-0.000198311
559	1346	1.31	-0.0002942
559	1903	1.41	-0.000383992
559	2460	1.51	-0.000467548
559	3016	1.61	-0.000544766
559	3572	1.71	-0.000615577
559	4129	1.81	-0.00067995
559	4685	1.91	-0.000737884
559	5252	2.01	-0.00078941
559	5808	2.11	-0.000834591
559	6364	2.21	-0.000873515
559	6920	2.31	-0.000906297
559	7476	2.41	-0.000933077
559	8032	2.51	-0.000954016
559	8588	2.61	-0.000969297
559	9144	2.71	-0.00097912
559	9700	2.81	-0.000983704
559	10256	2.91	-0.000983281
559	10820	3.01	-0.000978097
559	11376	3.11	-0.000968408
559	11932	3.21	-0.000954481
559	12488	3.31	-0.00093659
559	13044	3.41	-0.000915014
559	13600	3.51	-0.000890038
559	14156	3.61	-0.000861949
559	14712	3.71	-0.000831034
559	15268	3.81	-0.000797582
559	15824	3.91	-0.000761879
559	16388	4.01	-0.000724208
559	16944	4.11	-0.000684847
559	17500	4.21	-0.000644071
559	18056	4.31	-0.000602147
559	18612	4.41	-0.000559334
559	19168	4.51	-0.000515883
559	19724	4.61	-0.000472038
559	20280	4.71	-0.00042803
559	20836	4.81	-0.000384082
559	21392	4.91	-0.000340404
559	21957	5.01	-0.000297196
559	22514	5.11	0.00580754
559	23071	5.21	0.0661858
559	23628	5.31	0.135944
559	24185	5.41	0.202308
559	24742	5.51	0.265443
559	25299	5.61	0.325507
559	25856	5.71	0.382649
559	26413	5.81	0.43701
559	26970	5.91	0.488727
559	27535	6.01	0.537927
559	28092	6.11	0.584734
559	28649	6.21	0.629264
559	29206	6.31	0.671627
559	29763	6.41	0.711929
559	30320	6.51	0.75027
559	30877	6.61	0.786746
559	31434	6.71	0.821447
559	31991	6.81	0.85446
559	32548	6.91	0.885867
559	33113	7.01	0.915746
559	33670	7.11	0.944171
559	34227	7.21	0.971213
559	34784	7.31	0.995129
559	35341	7.41	0.993326
559	35898	7.51	0.928371
559	36455	7.61	0.8103
559	37012	7.71	0.697899
559	37569	7.81	0.590967
559	38126	7.91	0.489237
559	38691	8.01	0.392457
559	39248	8.11	0.300385
559	39805	8.21	0.212792
559	40362	8.31	0.129461
559	40919	8.41	0.0501848
559	41476	8.51	-0.0252349
559	42033	8.61	-0.0969852
559	42590	8.71	-0.165245
559	43147	8.81	-0.230183
559	43704	8.91	-0.291963
559	44269	9.01	-0.350736
559	44826	9.11	-0.40665
559	45383	9.21	-0.459844
559	45940	9.31	-0.51045
559	46497	9.41	-0.558593
559	47054	9.51	-0.604395
559	47611	9.61	-0.647968
559	48168	9.71	-0.689421
559	48725	9.81	-0.728857
559	49282	9.91	-0.766375
559	49847	10.01	-0.800608
559	50404	10.11	-0.812126
559	50961	10.21	-0.759982
559	51518	10.31	-0.654047
559	52075	10.41	-0.549248
559	52632	10.51	-0.449548
559	53189	10.61	-0.354698
559	53746	10.71	-0.264463
559	54303	10.81	-0.178619
559	54860	10.91	-0.0969503
559	55425	11.01	-0.0192554
559	55982	11.11	0.0546595
559	56539	11.21	0.124978
559	57096	11.31	0.191876
559	57653	11.41	0.255519
559	58210	11.51	0.316065
559	58767	11.61	0.373666
559	59324	11.71	0.428465
559	59881	11.81	0.480597
559	60438	11.91	0.530193
559	61003	12.01	0.577376
559	61560	12.11	0.622264
559	62117	12.21	0.664968
559	62674	12.31	0.703978
559	63231	12.41	0.719027
559	63788	12.51	0.671438
559	64345	12.61	0.569448
559	64902	12.71	0.468765
559	65459	12.81	0.37298
559	66016	12.91	0.281856
559	66581	13.01	0.195165
559	67138	13.11	0.112692
559	67695	13.21	0.0342309
559	68252	13.31	-0.0404126
559	68809	13.41	-0.111425
559	69366	13.51	-0.178982
559	69923	13.61	-0.243252
559	70480	13.71	-0.304395
559	71037	13.81	-0.362564
559	71594	13.91	-0.417902
559	72159	14.01	-0.470549
559	72716	14.11	-0.520634
559	73273	14.21	-0.568282
559	73830	14.31	-0.613612
559	74387	14.41	-0.656736
559	74944	14.51	-0.697763
559	75501	14.61	-0.736793
559	76058	14.71	-0.773925
559	76615	14.81	-0.80925
559	77172	14.91	-0.842856
559	77737	15.01	-0.871094
559	78294	15.11	-0.856771
559	78851	15.21	-0.781507
559	79408	15.31	-0.670507
559	79965	15.41	-0.564907
559	80522	15.51	-0.464445
559	81079	15.61	-0.368871
559	81636	15.71	-0.277947
559	82193	15.81	-0.191446
559	82750	15.91	-0.109153
559	83315	16.01	-0.0308648
559	83872	16.11	0.0436149
559	84429	16.21	0.114471
559	84986	16.31	0.18188
559	85543	16.41	0.246009
559	86100	16.51	0.307018
559	86657	16.61	0.365059
559	87214	16.71	0.420277
559	87771	16.81	0.472807
559	88328	16.91	0.522782
559	88893	17.01	0.570326
559	89450	17.11	0.615557
559	90007	17.21	0.658587
559	90564	17.31	0.699523
559	91121	17.41	0.732963
559	91678	17.51	0.708421
559	92235	17.61	0.62578
559	92792	17.71	0.522357
559	93349	17.81	0.423965
559	93906	17.91	0.33036
559	94471	18.01	0.241309
559	95028	18.11	0.156591
559	95585	18.21	0.0759945
559	96142	18.31	-0.000680891
559	96699	18.41	-0.0736259
559	97256	18.51	-0.143022
559	97813	18.61	-0.209042
559	98370	18.71	-0.271849
559	98927	18.81	-0.331602
559	99484	18.91	-0.388446
559	100049	19.01	-0.442526
559	100606	19.11	-0.493974
559	101163	19.21	-0.542919
559	101720	19.31	-0.589483
559	102277	19.41	-0.633782
559	102834	19.51	-0.675925
559	103391	19.61	-0.716018
559	103948	19.71	-0.75416
559	104505	19.81	-0.790447
559	105062	19.91	-0.824968
559	105627	20.01	-0.852073
559	106184	20.11	-0.819152
559	106741	20.21	-0.728343
559	107298	20.31	-0.61993
559	107855	20.41	-0.516791
559	108412	20.51	-0.41867
559	108969	20.61	-0.325323
559	109526	20.71	-0.236517
559	110083	20.81	-0.152032
559	110640	20.91	-0.0716571
559	111205	21.01	0.00480724
559	111762	21.11	0.0775514
559	112319	21.21	0.146756
559	112876	21.31	0.212595
559	113433	21.41	0.27523
559	113990	21.51	0.334817
559	114547	21.61	0.391506
559	115104	21.71	0.445436
559	115661	21.81	0.496743
559	116218	21.91	0.545553
559	116783	22.01	0.591989
559	117340	22.11	0.636166
559	117897	22.21	0.678193
559	118454	22.31	0.718176
559	119011	22.41	0.752321
559	119568	22.51	0.742544
559	120125	22.61	0.672205
559	120682	22.71	0.566523
559	121239	22.81	0.465982
559	121796	22.91	0.370333
559	122361	23.01	0.279337
559	122918	23.11	0.192769
559	123475	23.21	0.110412
559	124032	23.31	0.0320624
559	124589	23.41	-0.0424756
559	125146	23.51	-0.113387
559	125703	23.61	-0.180849
559	126260	23.71	-0.245028
559	126817	23.81	-0.306085
559	127374	23.91	-0.364172
559	127939	24.01	-0.419432
559	128496	24.11	-0.472004
559	129053	24.21	-0.522018
559	129610	24.31	-0.569599
559	130167	24.41	-0.614865
559	130724	24.51	-0.657928
559	131281	24.61	-0.698897
559	131838	24.71	-0.737872
559	132395	24.81	-0.774951
559	132952	24.91	-0.809706
559	133517	25.01	-0.829936
559	134074	25.11	-0.785898
559	134631	25.21	-0.685898
559	135188	25.31	-0.579549
559	135745	25.41	-0.478375
559	136302	25.51	-0.382123
559	136859	25.61	-0.290554
559	137416	25.71	-0.20344
559	137973	25.81	-0.120564
559	138530	25.91	-0.04172
559	139095	26.01	0.0332878
559	139652	26.11	0.104646
559	140209	26.21	0.172533
559	140766	26.31	0.237117
559	141323	26.41	0.298559
559	141880	26.51	0.357012
559	142437	26.61	0.41262
559	142994	26.71	0.465524
559	143551	26.81	0.515853
559	144108	26.91	0.563734
559	144673	27.01	0.609285
559	145230	27.11	0.65262
559	145787	27.21	0.693847
559	146344	27.31	0.733068
559	146901	27.41	0.767427
559	147458	27.51	0.766048
559	148015	27.61	0.702667
559	148572	27.71	0.595503
559	149129	27.81	0.493553
559	149686	27.91	0.396562
559	150251	28.01	0.30429
559	150808	28.11	0.216508
559	151365	28.21	0.132996
559	151922	28.31	0.0535477
559	152479	28.41	-0.0220356
559	153036	28.51	-0.0939416
559	153593	28.61	-0.162349
559	154150	28.71	-0.227429
559	154707	28.81	-0.289342
559	155264	28.91	-0.348243
559	155829	29.01	-0.404278
559	156386	29.11	-0.457587
559	156943	29.21	-0.508303
559	157500	29.31	-0.556551
559	158057	29.41	-0.602452
559	158614	29.51	-0.646119
559	159171	29.61	-0.687662
559	159728	29.71	-0.727184
559	160285	29.81	-0.764783
559	160842	29.91	-0.799325
559	161407	30.01	-0.81317
559	161964	30.11	-0.76314
559	162521	30.21	-0.658228
559	163078	30.31	-0.553226
559	163635	30.41	-0.453332
559	164192	30.51	-0.358298
559	164749	30.61	-0.267888
559	165306	30.71	-0.181877
559	165863	30.81	-0.10005
559	166420	30.91	-0.0222044
559	166985	31.01	0.051854
559	167542	31.11	0.122309
559	168099	31.21	0.189337
559	168656	31.31	0.253103
559	169213	31.41	0.313767
559	169770	31.51	0.37148
559	170327	31.61	0.426385
559	170884	31.71	0.478618
559	171441	31.81	0.528311
559	171998	31.91	0.575585
559	172563	32.01	0.62056
559	173120	32.11	0.663347
559	173677	32.21	0.704052
559	174234	32.31	0.742776
559	174791	32.41	0.777158
559	175348	32.51	0.780113
559	175905	32.61	0.720307
559	176462	32.71	0.612284
559	177019	32.81	0.509517
559	177576	32.91	0.41175
559	178141	33.01	0.31874
559	178698	33.11	0.230254
559	179255	33.21	0.146074
559	179812	33.31	0.0659888
559	180369	33.41	-0.0101997
559	180926	33.51	-0.0826816
559	181483	33.61	-0.151637
559	182040	33.71	-0.217238
559	182597	33.81	-0.279647
559	183154	33.91	-0.339019
559	183719	34.01	-0.395504
559	184276	34.11	-0.44924
559	184833	34.21	-0.500361
559	185390	34.31	-0.548996
559	185947	34.41	-0.595264
559	186504	34.51	-0.639281
559	187061	34.61	-0.681157
559	187618	34.71	-0.720995
559	188175	34.81	-0.758896
559	188732	34.91	-0.793363
559	189297	35.01	-0.803991
559	189854	35.11	-0.750944
559	190411	35.21	-0.643567
559	190968	35.31	-0.539278
559	191525	35.41	-0.440063
559	192082	35.51	-0.345675
559	192639	35.61	-0.255879
559	193196	35.71	-0.170452
559	193753	35.81	-0.089181
559	194310	35.91	-0.011864
559	194875	36.01	0.0616913
559	195432	36.11	0.131668
559	195989	36.21	0.19824
559	196546	36.31	0.261573
559	197103	36.41	0.321825
559	197660	36.51	0.379146
559	198217	36.61	0.433678
559	198774	36.71	0.485557
559	199331	36.81	0.534911
559	199888	36.91	0.581865
559	200453	37.01	0.626534
559	201010	37.11	0.66903
559	201567	37.21	0.709458
559	202124	37.31	0.74792
559	202681	37.41	0.782298
559	203238	37.51	0.787406
559	203795	37.61	0.729372
559	204352	37.71	0.620908
559	204909	37.81	0.517722
559	205466	37.91	0.419555
559	206031	38.01	0.326165
559	206588	38.11	0.237318
559	207145	38.21	0.152794
559	207702	38.31	0.0723825
559	208259	38.41	-0.00411718
559	208816	38.51	-0.076895
559	209373	38.61	-0.146132
559	209930	38.71	-0.212
559	210487	38.81	-0.274664
559	211044	38.91	-0.334279
559	211609	39.01	-0.390994
559	212166	39.11	-0.444949
559	212723	39.21	-0.49628
559	213280	39.31	-0.545113
559	213837	39.41	-0.59157
559	214394	39.51	-0.635767
559	214951	39.61	-0.677814
559	215508	39.71	-0.717815
559	216065	39.81	-0.75587
559	216622	39.91	-0.790306
559	217187	40.01	-0.799349
559	217744	40.11	-0.744817
559	218301	40.21	-0.636321
559	218858	40.31	-0.532384
559	219415	40.41	-0.433505
559	219972	40.51	-0.339436
559	220529	40.61	-0.249943
559	221086	40.71	-0.164805
559	221643	40.81	-0.0838088
559	222200	40.91	-0.0067532
559	222765	41.01	0.0665535
559	223322	41.11	0.136294
559	223879	41.21	0.202641
559	224436	41.31	0.26576
559	224993	41.41	0.325808
559	225550	41.51	0.382935
559	226107	41.61	0.437283
559	226664	41.71	0.488986
559	227221	41.81	0.538174
559	227778	41.91	0.584969
559	228343	42.01	0.629487
559	228900	42.11	0.671839
559	229457	42.21	0.712131
559	230014	42.31	0.750462
559	230571	42.41	0.784839
559	231128	42.51	0.79101
559	231685	42.61	0.73385
559	232242	42.71	0.625169
559	232799	42.81	0.521775
559	233356	42.91	0.423412
559	233921	43.01	0.329834
559	234478	43.11	0.240809
559	235035	43.21	0.156115
559	235592	43.31	0.0755412
559	236149	43.41	-0.00111209
559	236706	43.51	-0.0740361
559	237263	43.61	-0.143412
559	237820	43.71	-0.209413
559	238377	43.81	-0.272203
559	238934	43.91	-0.331938
559	239499	44.01	-0.388766
559	240056	44.11	-0.44283
559	240613	44.21	-0.494263
559	241170	44.31	-0.543195
559	241727	44.41	-0.589745
559	242284	44.51	-0.634031
559	242841	44.61	-0.676162
559	243398	44.71	-0.716244
559	243955	44.81	-0.754375
559	244512	44.91	-0.788796
559	245077	45.01	-0.797056
559	245634	45.11	-0.741791
559	246191	45.21	-0.633006
559	246748	45.31	-0.529231
559	247305	45.41	-0.430505
559	247862	45.51	-0.336582
559	248419	45.61	-0.247228
559	248976	45.71	-0.162222
559	249533	45.81	-0.0813514
559	250090	45.91	-0.00441538
559	250655	46.01	0.0687775
559	251212	46.11	0.138409
559	251769	46.21	0.204654
559	252326	46.31	0.267675
559	252883	46.41	0.32763
559	253440	46.51	0.384668
559	253997	46.61	0.438931
559	254554	46.71	0.490555
559	255111	46.81	0.539666
559	255668	46.91	0.586388
559	256233	47.01	0.630838
559	256790	47.11	0.673124
559	257347	47.21	0.713353
559	257904	47.31	0.751625
559	258461	47.41	0.786008
559	259018	47.51	0.792725
559	259575	47.61	0.736017
559	260132	47.71	0.62723
559	260689	47.81	0.523736
559	261246	47.91	0.425277
559	261811	48.01	0.331608
559	262368	48.11	0.242497
559	262925	48.21	0.157721
559	263482	48.31	0.0770693
559	264039	48.41	0.000341589
559	264596	48.51	-0.0726531
559	265153	48.61	-0.142096
559	265710	48.71	-0.208161
559	266267	48.81	-0.271012
559	266824	48.91	-0.330805
559	267389	49.01	-0.387688
559	267946	49.11	-0.441805
559	268503	49.21	-0.493288
559	269060	49.31	-0.542267
559	269617	49.41	-0.588862
559	270174	49.51	-0.633191
559	270731	49.61	-0.675363
559	271288	49.71	-0.715483
559	271845	49.81	-0.753652
559	272402	49.91	-0.788063
559	272967	50.01	-0.795914
559	273524	50.11	-0.740266
559	274081	50.21	-0.631408
559	274638	50.31	-0.527711
559	275195	50.41	-0.429059
559	275752	50.51	-0.335206
559	276309	50.61	-0.245919
559	276866	50.71	-0.160977
559	277423	50.81	-0.0801668
559	277980	50.91	-0.00328842
559	278545	51.01	0.0698497
559	279102	51.11	0.139429
559	279659	51.21	0.205624
559	280216	51.31	0.268598
559	280773	51.41	0.328508
559	281330	51.51	0.385504
559	281887	51.61	0.439726
559	282444	51.71	0.491311
559	283001	51.81	0.540386
559	283558	51.91	0.587073
559	284123	52.01	0.631489
559	284680	52.11	0.673743
559	285237	52.21	0.713943
559	285794	52.31	0.752186
559	286351	52.41	0.786574
559	286908	52.51	0.793585
559	287465	52.61	0.737149
559	288022	52.71	0.628307
559	288579	52.81	0.524761
559	289136	52.91	0.426252
559	289701	53.01	0.332536
559	290258	53.11	0.243379
559	290815	53.21	0.15856
559	291372	53.31	0.0778679
559	291929	53.41	0.00110133
559	292486	53.51	-0.0719303
559	293043	53.61	-0.141409
559	293600	53.71	-0.207507
559	294157	53.81	-0.27039
559	294714	53.91	-0.330213
559	295279	54.01	-0.387125
559	295836	54.11	-0.441269
559	296393	54.21	-0.492778
559	296950	54.31	-0.541782
559	297507	54.41	-0.588401
559	298064	54.51	-0.632752
559	298621	54.61	-0.674946
559	299178	54.71	-0.715086
559	299735	54.81	-0.753274
559	300292	54.91	-0.787678
559	300857	55.01	-0.795311
559	301414	55.11	-0.739456
559	301971	55.21	-0.630581
559	302528	55.31	-0.526924
559	303085	55.41	-0.42831
559	303642	55.51	-0.334494
559	304199	55.61	-0.245242
559	304756	55.71	-0.160332
559	305313	55.81	-0.0795537
559	305870	55.91	-0.00270515
559	306435	56.01	0.0704046
559	306992	56.11	0.139957
559	307549	56.21	0.206126
559	308106	56.31	0.269076
559	308663	56.41	0.328963
559	309220	56.51	0.385936
559	309777	56.61	0.440138
559	310334	56.71	0.491702
559	310891	56.81	0.540758
559	311448	56.91	0.587427
559	312013	57.01	0.631826
559	312570	57.11	0.674064
559	313127	57.21	0.714248
559	313684	57.31	0.752476
559	314241	57.41	0.786868
559	314798	57.51	0.79404
559	315355	57.61	0.737755
559	315912	57.71	0.628892
559	316469	57.81	0.525317
559	317026	57.91	0.426781
559	317591	58.01	0.333039
559	318148	58.11	0.243858
559	318705	58.21	0.159016
559	319262	58.31	0.0783014
559	319819	58.41	0.00151379
559	320376	58.51	-0.0715379
559	320933	58.61	-0.141036
559	321490	58.71	-0.207152
559	322047	58.81	-0.270052
559	322604	58.91	-0.329891
559	323169	59.01	-0.386819
559	323726	59.11	-0.440978
559	324283	59.21	-0.492502
559	324840	59.31	-0.541518
559	325397	59.41	-0.588151
559	325954	59.51	-0.632514
559	326511	59.61	-0.674719
559	327068	59.71	-0.71487
559	327625	59.81	-0.753069
559	328182	59.91	-0.78747
558	233	1.11	242.45
558	790	1.21	242.45
558	1346	1.31	242.45
558	1903	1.41	242.45
558	2460	1.51	242.45
558	3016	1.61	242.45
558	3572	1.71	242.45
558	4129	1.81	242.45
558	4685	1.91	242.45
558	5252	2.01	242.45
558	5808	2.11	242.45
558	6364	2.21	242.45
558	6920	2.31	242.45
558	7476	2.41	242.45
558	8032	2.51	242.45
558	8588	2.61	242.45
558	9144	2.71	242.45
558	9700	2.81	242.45
558	10256	2.91	242.45
558	10820	3.01	242.45
558	11376	3.11	242.45
558	11932	3.21	242.45
558	12488	3.31	242.45
558	13044	3.41	242.45
558	13600	3.51	242.45
558	14156	3.61	242.45
558	14712	3.71	242.45
558	15268	3.81	242.45
558	15824	3.91	242.45
558	16388	4.01	242.45
558	16944	4.11	242.45
558	17500	4.21	242.45
558	18056	4.31	242.45
558	18612	4.41	242.45
558	19168	4.51	242.45
558	19724	4.61	242.45
558	20280	4.71	242.45
558	20836	4.81	242.45
558	21392	4.91	242.45
558	21957	5.01	242.45
558	22514	5.11	242.45
558	23071	5.21	242.45
558	23628	5.31	242.45
558	24185	5.41	242.45
558	24742	5.51	242.45
558	25299	5.61	242.45
558	25856	5.71	242.45
558	26413	5.81	242.45
558	26970	5.91	242.45
558	27535	6.01	242.45
558	28092	6.11	242.45
558	28649	6.21	242.45
558	29206	6.31	242.45
558	29763	6.41	242.45
558	30320	6.51	242.45
558	30877	6.61	242.45
558	31434	6.71	242.45
558	31991	6.81	242.45
558	32548	6.91	242.45
558	33113	7.01	242.45
558	33670	7.11	242.45
558	34227	7.21	242.45
558	34784	7.31	242.45
558	35341	7.41	242.45
558	35898	7.51	242.45
558	36455	7.61	242.45
558	37012	7.71	242.45
558	37569	7.81	242.45
558	38126	7.91	242.45
558	38691	8.01	242.45
558	39248	8.11	242.45
558	39805	8.21	242.45
558	40362	8.31	242.45
558	40919	8.41	242.45
558	41476	8.51	242.45
558	42033	8.61	242.45
558	42590	8.71	242.45
558	43147	8.81	242.45
558	43704	8.91	242.45
558	44269	9.01	242.45
558	44826	9.11	242.45
558	45383	9.21	242.45
558	45940	9.31	242.45
558	46497	9.41	242.45
558	47054	9.51	242.45
558	47611	9.61	242.45
558	48168	9.71	242.45
558	48725	9.81	242.45
558	49282	9.91	242.45
558	49847	10.01	242.45
558	50404	10.11	242.45
558	50961	10.21	242.45
558	51518	10.31	242.45
558	52075	10.41	242.45
558	52632	10.51	242.45
558	53189	10.61	242.45
558	53746	10.71	242.45
558	54303	10.81	242.45
558	54860	10.91	242.45
558	55425	11.01	242.45
558	55982	11.11	242.45
558	56539	11.21	242.45
558	57096	11.31	242.45
558	57653	11.41	242.45
558	58210	11.51	242.45
558	58767	11.61	242.45
558	59324	11.71	242.45
558	59881	11.81	242.45
558	60438	11.91	242.45
558	61003	12.01	242.45
558	61560	12.11	242.45
558	62117	12.21	242.45
558	62674	12.31	242.45
558	63231	12.41	242.45
558	63788	12.51	242.45
558	64345	12.61	242.45
558	64902	12.71	242.45
558	65459	12.81	242.45
558	66016	12.91	242.45
558	66581	13.01	242.45
558	67138	13.11	242.45
558	67695	13.21	242.45
558	68252	13.31	242.45
558	68809	13.41	242.45
558	69366	13.51	242.45
558	69923	13.61	242.45
558	70480	13.71	242.45
558	71037	13.81	242.45
558	71594	13.91	242.45
558	72159	14.01	242.45
558	72716	14.11	242.45
558	73273	14.21	242.45
558	73830	14.31	242.45
558	74387	14.41	242.45
558	74944	14.51	242.45
558	75501	14.61	242.45
558	76058	14.71	242.45
558	76615	14.81	242.45
558	77172	14.91	242.45
558	77737	15.01	242.45
558	78294	15.11	242.45
558	78851	15.21	242.45
558	79408	15.31	242.45
558	79965	15.41	242.45
558	80522	15.51	242.45
558	81079	15.61	242.45
558	81636	15.71	242.45
558	82193	15.81	242.45
558	82750	15.91	242.45
558	83315	16.01	242.45
558	83872	16.11	242.45
558	84429	16.21	242.45
558	84986	16.31	242.45
558	85543	16.41	242.45
558	86100	16.51	242.45
558	86657	16.61	242.45
558	87214	16.71	242.45
558	87771	16.81	242.45
558	88328	16.91	242.45
558	88893	17.01	242.45
558	89450	17.11	242.45
558	90007	17.21	242.45
558	90564	17.31	242.45
558	91121	17.41	242.45
558	91678	17.51	242.45
558	92235	17.61	242.45
558	92792	17.71	242.45
558	93349	17.81	242.45
558	93906	17.91	242.45
558	94471	18.01	242.45
558	95028	18.11	242.45
558	95585	18.21	242.45
558	96142	18.31	242.45
558	96699	18.41	242.45
558	97256	18.51	242.45
558	97813	18.61	242.45
558	98370	18.71	242.45
558	98927	18.81	242.45
558	99484	18.91	242.45
558	100049	19.01	242.45
558	100606	19.11	242.45
558	101163	19.21	242.45
558	101720	19.31	242.45
558	102277	19.41	242.45
558	102834	19.51	242.45
558	103391	19.61	242.45
558	103948	19.71	242.45
558	104505	19.81	242.45
558	105062	19.91	242.45
558	105627	20.01	242.45
558	106184	20.11	242.45
558	106741	20.21	242.45
558	107298	20.31	242.45
558	107855	20.41	242.45
558	108412	20.51	242.45
558	108969	20.61	242.45
558	109526	20.71	242.45
558	110083	20.81	242.45
558	110640	20.91	242.45
558	111205	21.01	242.45
558	111762	21.11	242.45
558	112319	21.21	242.45
558	112876	21.31	242.45
558	113433	21.41	242.45
558	113990	21.51	242.45
558	114547	21.61	242.45
558	115104	21.71	242.45
558	115661	21.81	242.45
558	116218	21.91	242.45
558	116783	22.01	242.45
558	117340	22.11	242.45
558	117897	22.21	242.45
558	118454	22.31	242.45
558	119011	22.41	242.45
558	119568	22.51	242.45
558	120125	22.61	242.45
558	120682	22.71	242.45
558	121239	22.81	242.45
558	121796	22.91	242.45
558	122361	23.01	242.45
558	122918	23.11	242.45
558	123475	23.21	242.45
558	124032	23.31	242.45
558	124589	23.41	242.45
558	125146	23.51	242.45
558	125703	23.61	242.45
558	126260	23.71	242.45
558	126817	23.81	242.45
558	127374	23.91	242.45
558	127939	24.01	242.45
558	128496	24.11	242.45
558	129053	24.21	242.45
558	129610	24.31	242.45
558	130167	24.41	242.45
558	130724	24.51	242.45
558	131281	24.61	242.45
558	131838	24.71	242.45
558	132395	24.81	242.45
558	132952	24.91	242.45
558	133517	25.01	242.45
558	134074	25.11	242.45
558	134631	25.21	242.45
558	135188	25.31	242.45
558	135745	25.41	242.45
558	136302	25.51	242.45
558	136859	25.61	242.45
558	137416	25.71	242.45
558	137973	25.81	242.45
558	138530	25.91	242.45
558	139095	26.01	242.45
558	139652	26.11	242.45
558	140209	26.21	242.45
558	140766	26.31	242.45
558	141323	26.41	242.45
558	141880	26.51	242.45
558	142437	26.61	242.45
558	142994	26.71	242.45
558	143551	26.81	242.45
558	144108	26.91	242.45
558	144673	27.01	242.45
558	145230	27.11	242.45
558	145787	27.21	242.45
558	146344	27.31	242.45
558	146901	27.41	242.45
558	147458	27.51	242.45
558	148015	27.61	242.45
558	148572	27.71	242.45
558	149129	27.81	242.45
558	149686	27.91	242.45
558	150251	28.01	242.45
558	150808	28.11	242.45
558	151365	28.21	242.45
558	151922	28.31	242.45
558	152479	28.41	242.45
558	153036	28.51	242.45
558	153593	28.61	242.45
558	154150	28.71	242.45
558	154707	28.81	242.45
558	155264	28.91	242.45
558	155829	29.01	242.45
558	156386	29.11	242.45
558	156943	29.21	242.45
558	157500	29.31	242.45
558	158057	29.41	242.45
558	158614	29.51	242.45
558	159171	29.61	242.45
558	159728	29.71	242.45
558	160285	29.81	242.45
558	160842	29.91	242.45
558	161407	30.01	242.45
558	161964	30.11	242.45
558	162521	30.21	242.45
558	163078	30.31	242.45
558	163635	30.41	242.45
558	164192	30.51	242.45
558	164749	30.61	242.45
558	165306	30.71	242.45
558	165863	30.81	242.45
558	166420	30.91	242.45
558	166985	31.01	242.45
558	167542	31.11	242.45
558	168099	31.21	242.45
558	168656	31.31	242.45
558	169213	31.41	242.45
558	169770	31.51	242.45
558	170327	31.61	242.45
558	170884	31.71	242.45
558	171441	31.81	242.45
558	171998	31.91	242.45
558	172563	32.01	242.45
558	173120	32.11	242.45
558	173677	32.21	242.45
558	174234	32.31	242.45
558	174791	32.41	242.45
558	175348	32.51	242.45
558	175905	32.61	242.45
558	176462	32.71	242.45
558	177019	32.81	242.45
558	177576	32.91	242.45
558	178141	33.01	242.45
558	178698	33.11	242.45
558	179255	33.21	242.45
558	179812	33.31	242.45
558	180369	33.41	242.45
558	180926	33.51	242.45
558	181483	33.61	242.45
558	182040	33.71	242.45
558	182597	33.81	242.45
558	183154	33.91	242.45
558	183719	34.01	242.45
558	184276	34.11	242.45
558	184833	34.21	242.45
558	185390	34.31	242.45
558	185947	34.41	242.45
558	186504	34.51	242.45
558	187061	34.61	242.45
558	187618	34.71	242.45
558	188175	34.81	242.45
558	188732	34.91	242.45
558	189297	35.01	242.45
558	189854	35.11	242.45
558	190411	35.21	242.45
558	190968	35.31	242.45
558	191525	35.41	242.45
558	192082	35.51	242.45
558	192639	35.61	242.45
558	193196	35.71	242.45
558	193753	35.81	242.45
558	194310	35.91	242.45
558	194875	36.01	242.45
558	195432	36.11	242.45
558	195989	36.21	242.45
558	196546	36.31	242.45
558	197103	36.41	242.45
558	197660	36.51	242.45
558	198217	36.61	242.45
558	198774	36.71	242.45
558	199331	36.81	242.45
558	199888	36.91	242.45
558	200453	37.01	242.45
558	201010	37.11	242.45
558	201567	37.21	242.45
558	202124	37.31	242.45
558	202681	37.41	242.45
558	203238	37.51	242.45
558	203795	37.61	242.45
558	204352	37.71	242.45
558	204909	37.81	242.45
558	205466	37.91	242.45
558	206031	38.01	242.45
558	206588	38.11	242.45
558	207145	38.21	242.45
558	207702	38.31	242.45
558	208259	38.41	242.45
558	208816	38.51	242.45
558	209373	38.61	242.45
558	209930	38.71	242.45
558	210487	38.81	242.45
558	211044	38.91	242.45
558	211609	39.01	242.45
558	212166	39.11	242.45
558	212723	39.21	242.45
558	213280	39.31	242.45
558	213837	39.41	242.45
558	214394	39.51	242.45
558	214951	39.61	242.45
558	215508	39.71	242.45
558	216065	39.81	242.45
558	216622	39.91	242.45
558	217187	40.01	242.45
558	217744	40.11	242.45
558	218301	40.21	242.45
558	218858	40.31	242.45
558	219415	40.41	242.45
558	219972	40.51	242.45
558	220529	40.61	242.45
558	221086	40.71	242.45
558	221643	40.81	242.45
558	222200	40.91	242.45
558	222765	41.01	242.45
558	223322	41.11	242.45
558	223879	41.21	242.45
558	224436	41.31	242.45
558	224993	41.41	242.45
558	225550	41.51	242.45
558	226107	41.61	242.45
558	226664	41.71	242.45
558	227221	41.81	242.45
558	227778	41.91	242.45
558	228343	42.01	242.45
558	228900	42.11	242.45
558	229457	42.21	242.45
558	230014	42.31	242.45
558	230571	42.41	242.45
558	231128	42.51	242.45
558	231685	42.61	242.45
558	232242	42.71	242.45
558	232799	42.81	242.45
558	233356	42.91	242.45
558	233921	43.01	242.45
558	234478	43.11	242.45
558	235035	43.21	242.45
558	235592	43.31	242.45
558	236149	43.41	242.45
558	236706	43.51	242.45
558	237263	43.61	242.45
558	237820	43.71	242.45
558	238377	43.81	242.45
558	238934	43.91	242.45
558	239499	44.01	242.45
558	240056	44.11	242.45
558	240613	44.21	242.45
558	241170	44.31	242.45
558	241727	44.41	242.45
558	242284	44.51	242.45
558	242841	44.61	242.45
558	243398	44.71	242.45
558	243955	44.81	242.45
558	244512	44.91	242.45
558	245077	45.01	242.45
558	245634	45.11	242.45
558	246191	45.21	242.45
558	246748	45.31	242.45
558	247305	45.41	242.45
558	247862	45.51	242.45
558	248419	45.61	242.45
558	248976	45.71	242.45
558	249533	45.81	242.45
558	250090	45.91	242.45
558	250655	46.01	242.45
558	251212	46.11	242.45
558	251769	46.21	242.45
558	252326	46.31	242.45
558	252883	46.41	242.45
558	253440	46.51	242.45
558	253997	46.61	242.45
558	254554	46.71	242.45
558	255111	46.81	242.45
558	255668	46.91	242.45
558	256233	47.01	242.45
558	256790	47.11	242.45
558	257347	47.21	242.45
558	257904	47.31	242.45
558	258461	47.41	242.45
558	259018	47.51	242.45
558	259575	47.61	242.45
558	260132	47.71	242.45
558	260689	47.81	242.45
558	261246	47.91	242.45
558	261811	48.01	242.45
558	262368	48.11	242.45
558	262925	48.21	242.45
558	263482	48.31	242.45
558	264039	48.41	242.45
558	264596	48.51	242.45
558	265153	48.61	242.45
558	265710	48.71	242.45
558	266267	48.81	242.45
558	266824	48.91	242.45
558	267389	49.01	242.45
558	267946	49.11	242.45
558	268503	49.21	242.45
558	269060	49.31	242.45
558	269617	49.41	242.45
558	270174	49.51	242.45
558	270731	49.61	242.45
558	271288	49.71	242.45
558	271845	49.81	242.45
558	272402	49.91	242.45
558	272967	50.01	242.45
558	273524	50.11	242.45
558	274081	50.21	242.45
558	274638	50.31	242.45
558	275195	50.41	242.45
558	275752	50.51	242.45
558	276309	50.61	242.45
558	276866	50.71	242.45
558	277423	50.81	242.45
558	277980	50.91	242.45
558	278545	51.01	242.45
558	279102	51.11	242.45
558	279659	51.21	242.45
558	280216	51.31	242.45
558	280773	51.41	242.45
558	281330	51.51	242.45
558	281887	51.61	242.45
558	282444	51.71	242.45
558	283001	51.81	242.45
558	283558	51.91	242.45
558	284123	52.01	242.45
558	284680	52.11	242.45
558	285237	52.21	242.45
558	285794	52.31	242.45
558	286351	52.41	242.45
558	286908	52.51	242.45
558	287465	52.61	242.45
558	288022	52.71	242.45
558	288579	52.81	242.45
558	289136	52.91	242.45
558	289701	53.01	242.45
558	290258	53.11	242.45
558	290815	53.21	242.45
558	291372	53.31	242.45
558	291929	53.41	242.45
558	292486	53.51	242.45
558	293043	53.61	242.45
558	293600	53.71	242.45
558	294157	53.81	242.45
558	294714	53.91	242.45
558	295279	54.01	242.45
558	295836	54.11	242.45
558	296393	54.21	242.45
558	296950	54.31	242.45
558	297507	54.41	242.45
558	298064	54.51	242.45
558	298621	54.61	242.45
558	299178	54.71	242.45
558	299735	54.81	242.45
558	300292	54.91	242.45
558	300857	55.01	242.45
558	301414	55.11	242.45
558	301971	55.21	242.45
558	302528	55.31	242.45
558	303085	55.41	242.45
558	303642	55.51	242.45
558	304199	55.61	242.45
558	304756	55.71	242.45
558	305313	55.81	242.45
558	305870	55.91	242.45
558	306435	56.01	242.45
558	306992	56.11	242.45
558	307549	56.21	242.45
558	308106	56.31	242.45
558	308663	56.41	242.45
558	309220	56.51	242.45
558	309777	56.61	242.45
558	310334	56.71	242.45
558	310891	56.81	242.45
558	311448	56.91	242.45
558	312013	57.01	242.45
558	312570	57.11	242.45
558	313127	57.21	242.45
558	313684	57.31	242.45
558	314241	57.41	242.45
558	314798	57.51	242.45
558	315355	57.61	242.45
558	315912	57.71	242.45
558	316469	57.81	242.45
558	317026	57.91	242.45
558	317591	58.01	242.45
558	318148	58.11	242.45
558	318705	58.21	242.45
558	319262	58.31	242.45
558	319819	58.41	242.45
558	320376	58.51	242.45
558	320933	58.61	242.45
558	321490	58.71	242.45
558	322047	58.81	242.45
558	322604	58.91	242.45
558	323169	59.01	242.45
558	323726	59.11	242.45
558	324283	59.21	242.45
558	324840	59.31	242.45
558	325397	59.41	242.45
558	325954	59.51	242.45
558	326511	59.61	242.45
558	327068	59.71	242.45
558	327625	59.81	242.45
558	328182	59.91	242.45
557	233	1.11	73.9402
557	790	1.21	76.7182
557	1346	1.31	79.4962
557	1903	1.41	82.2742
557	2460	1.51	85.0522
557	3016	1.61	87.8302
557	3572	1.71	90.6081
557	4129	1.81	93.3861
557	4685	1.91	96.1641
557	5252	2.01	98.942
557	5808	2.11	101.72
557	6364	2.21	104.498
557	6920	2.31	107.276
557	7476	2.41	110.054
557	8032	2.51	112.832
557	8588	2.61	115.61
557	9144	2.71	118.388
557	9700	2.81	121.165
557	10256	2.91	123.943
557	10820	3.01	126.721
557	11376	3.11	129.499
557	11932	3.21	132.277
557	12488	3.31	135.055
557	13044	3.41	137.833
557	13600	3.51	140.61
557	14156	3.61	143.388
557	14712	3.71	146.166
557	15268	3.81	148.944
557	15824	3.91	151.722
557	16388	4.01	154.499
557	16944	4.11	157.277
557	17500	4.21	160.055
557	18056	4.31	162.833
557	18612	4.41	165.61
557	19168	4.51	168.388
557	19724	4.61	171.166
557	20280	4.71	173.944
557	20836	4.81	176.721
557	21392	4.91	179.499
557	21957	5.01	182.277
557	22514	5.11	185.054
557	23071	5.21	187.832
557	23628	5.31	190.611
557	24185	5.41	193.391
557	24742	5.51	196.173
557	25299	5.61	198.958
557	25856	5.71	201.746
557	26413	5.81	204.537
557	26970	5.91	207.334
557	27535	6.01	210.135
557	28092	6.11	212.941
557	28649	6.21	215.754
557	29206	6.31	218.573
557	29763	6.41	221.398
557	30320	6.51	224.231
557	30877	6.61	227.071
557	31434	6.71	229.919
557	31991	6.81	232.775
557	32548	6.91	235.64
557	33113	7.01	238.513
557	33670	7.11	241.396
557	34227	7.21	244.289
557	34784	7.31	247.191
557	35341	7.41	250.102
557	35898	7.51	253.024
557	36455	7.61	255.955
557	37012	7.71	258.894
557	37569	7.81	261.84
557	38126	7.91	264.792
557	38691	8.01	267.749
557	39248	8.11	270.709
557	39805	8.21	273.673
557	40362	8.31	276.638
557	40919	8.41	279.605
557	41476	8.51	282.572
557	42033	8.61	285.539
557	42590	8.71	288.505
557	43147	8.81	291.47
557	43704	8.91	294.432
557	44269	9.01	297.391
557	44826	9.11	300.346
557	45383	9.21	303.298
557	45940	9.31	306.244
557	46497	9.41	309.186
557	47054	9.51	312.122
557	47611	9.61	315.052
557	48168	9.71	317.976
557	48725	9.81	320.892
557	49282	9.91	323.801
557	49847	10.01	326.703
557	50404	10.11	329.597
557	50961	10.21	332.482
557	51518	10.31	335.36
557	52075	10.41	338.232
557	52632	10.51	341.098
557	53189	10.61	343.96
557	53746	10.71	346.818
557	54303	10.81	349.674
557	54860	10.91	352.527
557	55425	11.01	355.38
557	55982	11.11	358.233
557	56539	11.21	361.086
557	57096	11.31	363.941
557	57653	11.41	366.798
557	58210	11.51	369.657
557	58767	11.61	372.519
557	59324	11.71	375.385
557	59881	11.81	378.256
557	60438	11.91	381.131
557	61003	12.01	384.011
557	61560	12.11	386.898
557	62117	12.21	389.79
557	62674	12.31	392.69
557	63231	12.41	395.596
557	63788	12.51	398.509
557	64345	12.61	401.429
557	64902	12.71	404.355
557	65459	12.81	407.285
557	66016	12.91	410.219
557	66581	13.01	413.156
557	67138	13.11	416.095
557	67695	13.21	419.034
557	68252	13.31	421.974
557	68809	13.41	424.914
557	69366	13.51	427.853
557	69923	13.61	430.789
557	70480	13.71	433.723
557	71037	13.81	436.655
557	71594	13.91	439.582
557	72159	14.01	442.505
557	72716	14.11	445.424
557	73273	14.21	448.337
557	73830	14.31	451.245
557	74387	14.41	454.146
557	74944	14.51	457.041
557	75501	14.61	459.929
557	76058	14.71	462.809
557	76615	14.81	465.682
557	77172	14.91	468.547
557	77737	15.01	471.403
557	78294	15.11	474.25
557	78851	15.21	477.09
557	79408	15.31	479.921
557	79965	15.41	482.746
557	80522	15.51	485.565
557	81079	15.61	488.379
557	81636	15.71	491.19
557	82193	15.81	493.998
557	82750	15.91	496.804
557	83315	16.01	499.609
557	83872	16.11	502.414
557	84429	16.21	505.22
557	84986	16.31	508.026
557	85543	16.41	510.834
557	86100	16.51	513.645
557	86657	16.61	516.459
557	87214	16.71	519.277
557	87771	16.81	522.099
557	88328	16.91	524.925
557	88893	17.01	527.757
557	89450	17.11	530.595
557	90007	17.21	533.439
557	90564	17.31	536.289
557	91121	17.41	539.146
557	91678	17.51	542.011
557	92235	17.61	544.883
557	92792	17.71	547.76
557	93349	17.81	550.643
557	93906	17.91	553.531
557	94471	18.01	556.421
557	95028	18.11	559.314
557	95585	18.21	562.208
557	96142	18.31	565.103
557	96699	18.41	567.998
557	97256	18.51	570.893
557	97813	18.61	573.785
557	98370	18.71	576.676
557	98927	18.81	579.564
557	99484	18.91	582.449
557	100049	19.01	585.329
557	100606	19.11	588.206
557	101163	19.21	591.077
557	101720	19.31	593.943
557	102277	19.41	596.803
557	102834	19.51	599.656
557	103391	19.61	602.503
557	103948	19.71	605.342
557	104505	19.81	608.174
557	105062	19.91	610.999
557	105627	20.01	613.814
557	106184	20.11	616.622
557	106741	20.21	619.421
557	107298	20.31	622.213
557	107855	20.41	624.999
557	108412	20.51	627.78
557	108969	20.61	630.557
557	109526	20.71	633.33
557	110083	20.81	636.101
557	110640	20.91	638.871
557	111205	21.01	641.64
557	111762	21.11	644.409
557	112319	21.21	647.179
557	112876	21.31	649.95
557	113433	21.41	652.724
557	113990	21.51	655.5
557	114547	21.61	658.28
557	115104	21.71	661.063
557	115661	21.81	663.852
557	116218	21.91	666.645
557	116783	22.01	669.443
557	117340	22.11	672.248
557	117897	22.21	675.059
557	118454	22.31	677.876
557	119011	22.41	680.701
557	119568	22.51	683.534
557	120125	22.61	686.373
557	120682	22.71	689.22
557	121239	22.81	692.072
557	121796	22.91	694.928
557	122361	23.01	697.788
557	122918	23.11	700.651
557	123475	23.21	703.516
557	124032	23.31	706.382
557	124589	23.41	709.248
557	125146	23.51	712.114
557	125703	23.61	714.979
557	126260	23.71	717.842
557	126817	23.81	720.702
557	127374	23.91	723.559
557	127939	24.01	726.413
557	128496	24.11	729.262
557	129053	24.21	732.106
557	129610	24.31	734.946
557	130167	24.41	737.779
557	130724	24.51	740.607
557	131281	24.61	743.428
557	131838	24.71	746.241
557	132395	24.81	749.048
557	132952	24.91	751.847
557	133517	25.01	754.637
557	134074	25.11	757.419
557	134631	25.21	760.194
557	135188	25.31	762.962
557	135745	25.41	765.724
557	136302	25.51	768.481
557	136859	25.61	771.235
557	137416	25.71	773.985
557	137973	25.81	776.734
557	138530	25.91	779.482
557	139095	26.01	782.229
557	139652	26.11	784.976
557	140209	26.21	787.725
557	140766	26.31	790.475
557	141323	26.41	793.228
557	141880	26.51	795.984
557	142437	26.61	798.743
557	142994	26.71	801.506
557	143551	26.81	804.275
557	144108	26.91	807.048
557	144673	27.01	809.827
557	145230	27.11	812.612
557	145787	27.21	815.404
557	146344	27.31	818.202
557	146901	27.41	821.008
557	147458	27.51	823.822
557	148015	27.61	826.643
557	148572	27.71	829.471
557	149129	27.81	832.305
557	149686	27.91	835.144
557	150251	28.01	837.987
557	150808	28.11	840.833
557	151365	28.21	843.681
557	151922	28.31	846.53
557	152479	28.41	849.38
557	153036	28.51	852.229
557	153593	28.61	855.078
557	154150	28.71	857.925
557	154707	28.81	860.769
557	155264	28.91	863.611
557	155829	29.01	866.449
557	156386	29.11	869.283
557	156943	29.21	872.112
557	157500	29.31	874.937
557	158057	29.41	877.756
557	158614	29.51	880.568
557	159171	29.61	883.375
557	159728	29.71	886.174
557	160285	29.81	888.966
557	160842	29.91	891.75
557	161407	30.01	894.527
557	161964	30.11	897.295
557	162521	30.21	900.056
557	163078	30.31	902.81
557	163635	30.41	905.559
557	164192	30.51	908.304
557	164749	30.61	911.044
557	165306	30.71	913.782
557	165863	30.81	916.519
557	166420	30.91	919.254
557	166985	31.01	921.99
557	167542	31.11	924.725
557	168099	31.21	927.462
557	168656	31.31	930.201
557	169213	31.41	932.943
557	169770	31.51	935.688
557	170327	31.61	938.436
557	170884	31.71	941.189
557	171441	31.81	943.946
557	171998	31.91	946.709
557	172563	32.01	949.478
557	173120	32.11	952.252
557	173677	32.21	955.034
557	174234	32.31	957.822
557	174791	32.41	960.618
557	175348	32.51	963.422
557	175905	32.61	966.234
557	176462	32.71	969.052
557	177019	32.81	971.877
557	177576	32.91	974.706
557	178141	33.01	977.54
557	178698	33.11	980.377
557	179255	33.21	983.216
557	179812	33.31	986.057
557	180369	33.41	988.898
557	180926	33.51	991.739
557	181483	33.61	994.579
557	182040	33.71	997.418
557	182597	33.81	1000.25
557	183154	33.91	1003.09
557	183719	34.01	1005.92
557	184276	34.11	1008.74
557	184833	34.21	1011.57
557	185390	34.31	1014.38
557	185947	34.41	1017.19
557	186504	34.51	1020
557	187061	34.61	1022.8
557	187618	34.71	1025.59
557	188175	34.81	1028.37
557	188732	34.91	1031.15
557	189297	35.01	1033.92
557	189854	35.11	1036.68
557	190411	35.21	1039.44
557	190968	35.31	1042.18
557	191525	35.41	1044.93
557	192082	35.51	1047.66
557	192639	35.61	1050.4
557	193196	35.71	1053.13
557	193753	35.81	1055.86
557	194310	35.91	1058.59
557	194875	36.01	1061.32
557	195432	36.11	1064.05
557	195989	36.21	1066.78
557	196546	36.31	1069.51
557	197103	36.41	1072.25
557	197660	36.51	1074.99
557	198217	36.61	1077.73
557	198774	36.71	1080.48
557	199331	36.81	1083.23
557	199888	36.91	1085.99
557	200453	37.01	1088.75
557	201010	37.11	1091.52
557	201567	37.21	1094.3
557	202124	37.31	1097.08
557	202681	37.41	1099.87
557	203238	37.51	1102.67
557	203795	37.61	1105.48
557	204352	37.71	1108.29
557	204909	37.81	1111.11
557	205466	37.91	1113.94
557	206031	38.01	1116.77
557	206588	38.11	1119.6
557	207145	38.21	1122.43
557	207702	38.31	1125.27
557	208259	38.41	1128.11
557	208816	38.51	1130.94
557	209373	38.61	1133.78
557	209930	38.71	1136.61
557	210487	38.81	1139.45
557	211044	38.91	1142.28
557	211609	39.01	1145.1
557	212166	39.11	1147.92
557	212723	39.21	1150.74
557	213280	39.31	1153.55
557	213837	39.41	1156.36
557	214394	39.51	1159.16
557	214951	39.61	1161.96
557	215508	39.71	1164.75
557	216065	39.81	1167.53
557	216622	39.91	1170.3
557	217187	40.01	1173.07
557	217744	40.11	1175.82
557	218301	40.21	1178.58
557	218858	40.31	1181.32
557	219415	40.41	1184.06
557	219972	40.51	1186.79
557	220529	40.61	1189.52
557	221086	40.71	1192.25
557	221643	40.81	1194.98
557	222200	40.91	1197.71
557	222765	41.01	1200.43
557	223322	41.11	1203.16
557	223879	41.21	1205.89
557	224436	41.31	1208.62
557	224993	41.41	1211.35
557	225550	41.51	1214.09
557	226107	41.61	1216.83
557	226664	41.71	1219.57
557	227221	41.81	1222.32
557	227778	41.91	1225.08
557	228343	42.01	1227.84
557	228900	42.11	1230.6
557	229457	42.21	1233.38
557	230014	42.31	1236.16
557	230571	42.41	1238.95
557	231128	42.51	1241.74
557	231685	42.61	1244.55
557	232242	42.71	1247.36
557	232799	42.81	1250.18
557	233356	42.91	1253
557	233921	43.01	1255.83
557	234478	43.11	1258.66
557	235035	43.21	1261.49
557	235592	43.31	1264.32
557	236149	43.41	1267.16
557	236706	43.51	1269.99
557	237263	43.61	1272.83
557	237820	43.71	1275.66
557	238377	43.81	1278.49
557	238934	43.91	1281.32
557	239499	44.01	1284.14
557	240056	44.11	1286.96
557	240613	44.21	1289.78
557	241170	44.31	1292.59
557	241727	44.41	1295.4
557	242284	44.51	1298.2
557	242841	44.61	1300.99
557	243398	44.71	1303.78
557	243955	44.81	1306.55
557	244512	44.91	1309.33
557	245077	45.01	1312.09
557	245634	45.11	1314.85
557	246191	45.21	1317.6
557	246748	45.31	1320.34
557	247305	45.41	1323.07
557	247862	45.51	1325.81
557	248419	45.61	1328.54
557	248976	45.71	1331.26
557	249533	45.81	1333.99
557	250090	45.91	1336.71
557	250655	46.01	1339.44
557	251212	46.11	1342.16
557	251769	46.21	1344.89
557	252326	46.31	1347.62
557	252883	46.41	1350.35
557	253440	46.51	1353.09
557	253997	46.61	1355.83
557	254554	46.71	1358.57
557	255111	46.81	1361.32
557	255668	46.91	1364.07
557	256233	47.01	1366.83
557	256790	47.11	1369.6
557	257347	47.21	1372.37
557	257904	47.31	1375.15
557	258461	47.41	1377.94
557	259018	47.51	1380.73
557	259575	47.61	1383.53
557	260132	47.71	1386.34
557	260689	47.81	1389.16
557	261246	47.91	1391.98
557	261811	48.01	1394.81
557	262368	48.11	1397.64
557	262925	48.21	1400.47
557	263482	48.31	1403.3
557	264039	48.41	1406.14
557	264596	48.51	1408.97
557	265153	48.61	1411.8
557	265710	48.71	1414.63
557	266267	48.81	1417.46
557	266824	48.91	1420.29
557	267389	49.01	1423.11
557	267946	49.11	1425.93
557	268503	49.21	1428.75
557	269060	49.31	1431.56
557	269617	49.41	1434.36
557	270174	49.51	1437.16
557	270731	49.61	1439.95
557	271288	49.71	1442.74
557	271845	49.81	1445.52
557	272402	49.91	1448.29
557	272967	50.01	1451.05
557	273524	50.11	1453.81
557	274081	50.21	1456.55
557	274638	50.31	1459.3
557	275195	50.41	1462.03
557	275752	50.51	1464.76
557	276309	50.61	1467.49
557	276866	50.71	1470.22
557	277423	50.81	1472.94
557	277980	50.91	1475.67
557	278545	51.01	1478.39
557	279102	51.11	1481.12
557	279659	51.21	1483.84
557	280216	51.31	1486.57
557	280773	51.41	1489.3
557	281330	51.51	1492.04
557	281887	51.61	1494.77
557	282444	51.71	1497.52
557	283001	51.81	1500.27
557	283558	51.91	1503.02
557	284123	52.01	1505.78
557	284680	52.11	1508.54
557	285237	52.21	1511.31
557	285794	52.31	1514.09
557	286351	52.41	1516.88
557	286908	52.51	1519.67
557	287465	52.61	1522.48
557	288022	52.71	1525.29
557	288579	52.81	1528.1
557	289136	52.91	1530.92
557	289701	53.01	1533.75
557	290258	53.11	1536.58
557	290815	53.21	1539.41
557	291372	53.31	1542.24
557	291929	53.41	1545.07
557	292486	53.51	1547.91
557	293043	53.61	1550.74
557	293600	53.71	1553.57
557	294157	53.81	1556.4
557	294714	53.91	1559.22
557	295279	54.01	1562.05
557	295836	54.11	1564.87
557	296393	54.21	1567.68
557	296950	54.31	1570.49
557	297507	54.41	1573.29
557	298064	54.51	1576.09
557	298621	54.61	1578.88
557	299178	54.71	1581.67
557	299735	54.81	1584.45
557	300292	54.91	1587.22
557	300857	55.01	1589.98
557	301414	55.11	1592.73
557	301971	55.21	1595.48
557	302528	55.31	1598.22
557	303085	55.41	1600.96
557	303642	55.51	1603.69
557	304199	55.61	1606.42
557	304756	55.71	1609.14
557	305313	55.81	1611.87
557	305870	55.91	1614.59
557	306435	56.01	1617.32
557	306992	56.11	1620.04
557	307549	56.21	1622.77
557	308106	56.31	1625.49
557	308663	56.41	1628.22
557	309220	56.51	1630.96
557	309777	56.61	1633.7
557	310334	56.71	1636.44
557	310891	56.81	1639.19
557	311448	56.91	1641.94
557	312013	57.01	1644.7
557	312570	57.11	1647.46
557	313127	57.21	1650.23
557	313684	57.31	1653.01
557	314241	57.41	1655.8
557	314798	57.51	1658.59
557	315355	57.61	1661.39
557	315912	57.71	1664.2
557	316469	57.81	1667.02
557	317026	57.91	1669.84
557	317591	58.01	1672.66
557	318148	58.11	1675.49
557	318705	58.21	1678.32
557	319262	58.31	1681.16
557	319819	58.41	1683.99
557	320376	58.51	1686.82
557	320933	58.61	1689.65
557	321490	58.71	1692.48
557	322047	58.81	1695.31
557	322604	58.91	1698.14
557	323169	59.01	1700.96
557	323726	59.11	1703.78
557	324283	59.21	1706.59
557	324840	59.31	1709.4
557	325397	59.41	1712.21
557	325954	59.51	1715
557	326511	59.61	1717.8
557	327068	59.71	1720.58
557	327625	59.81	1723.36
557	328182	59.91	1726.13
556	233	1.11	27.78
556	790	1.21	27.78
556	1346	1.31	27.78
556	1903	1.41	27.7799
556	2460	1.51	27.7799
556	3016	1.61	27.7798
556	3572	1.71	27.7798
556	4129	1.81	27.7797
556	4685	1.91	27.7796
556	5252	2.01	27.7796
556	5808	2.11	27.7795
556	6364	2.21	27.7794
556	6920	2.31	27.7793
556	7476	2.41	27.7792
556	8032	2.51	27.7791
556	8588	2.61	27.779
556	9144	2.71	27.7789
556	9700	2.81	27.7788
556	10256	2.91	27.7787
556	10820	3.01	27.7786
556	11376	3.11	27.7785
556	11932	3.21	27.7784
556	12488	3.31	27.7783
556	13044	3.41	27.7782
556	13600	3.51	27.7782
556	14156	3.61	27.7781
556	14712	3.71	27.778
556	15268	3.81	27.7779
556	15824	3.91	27.7778
556	16388	4.01	27.7777
556	16944	4.11	27.7777
556	17500	4.21	27.7776
556	18056	4.31	27.7775
556	18612	4.41	27.7775
556	19168	4.51	27.7774
556	19724	4.61	27.7774
556	20280	4.71	27.7773
556	20836	4.81	27.7773
556	21392	4.91	27.7773
556	21957	5.01	27.7772
556	22514	5.11	27.7773
556	23071	5.21	27.7811
556	23628	5.31	27.7916
556	24185	5.41	27.8089
556	24742	5.51	27.8326
556	25299	5.61	27.8625
556	25856	5.71	27.8982
556	26413	5.81	27.9395
556	26970	5.91	27.9861
556	27535	6.01	28.0376
556	28092	6.11	28.094
556	28649	6.21	28.155
556	29206	6.31	28.2203
556	29763	6.41	28.2896
556	30320	6.51	28.363
556	30877	6.61	28.44
556	31434	6.71	28.5206
556	31991	6.81	28.6046
556	32548	6.91	28.6918
556	33113	7.01	28.782
556	33670	7.11	28.8752
556	34227	7.21	28.9711
556	34784	7.31	29.0696
556	35341	7.41	29.1693
556	35898	7.51	29.2654
556	36455	7.61	29.3517
556	37012	7.71	29.4265
556	37569	7.81	29.4903
556	38126	7.91	29.5438
556	38691	8.01	29.5874
556	39248	8.11	29.6215
556	39805	8.21	29.6467
556	40362	8.31	29.6634
556	40919	8.41	29.6719
556	41476	8.51	29.6727
556	42033	8.61	29.6662
556	42590	8.71	29.6528
556	43147	8.81	29.6326
556	43704	8.91	29.6062
556	44269	9.01	29.5737
556	44826	9.11	29.5356
556	45383	9.21	29.492
556	45940	9.31	29.4432
556	46497	9.41	29.3895
556	47054	9.51	29.3311
556	47611	9.61	29.2682
556	48168	9.71	29.2011
556	48725	9.81	29.13
556	49282	9.91	29.055
556	49847	10.01	28.9764
556	50404	10.11	28.8954
556	50961	10.21	28.8168
556	51518	10.31	28.7466
556	52075	10.41	28.687
556	52632	10.51	28.6376
556	53189	10.61	28.5979
556	53746	10.71	28.5675
556	54303	10.81	28.5458
556	54860	10.91	28.5324
556	55425	11.01	28.527
556	55982	11.11	28.5292
556	56539	11.21	28.5386
556	57096	11.31	28.5548
556	57653	11.41	28.5775
556	58210	11.51	28.6064
556	58767	11.61	28.6412
556	59324	11.71	28.6816
556	59881	11.81	28.7273
556	60438	11.91	28.7781
556	61003	12.01	28.8338
556	61560	12.11	28.894
556	62117	12.21	28.9586
556	62674	12.31	29.0273
556	63231	12.41	29.0989
556	63788	12.51	29.1684
556	64345	12.61	29.23
556	64902	12.71	29.2813
556	65459	12.81	29.3229
556	66016	12.91	29.3551
556	66581	13.01	29.3785
556	67138	13.11	29.3935
556	67695	13.21	29.4004
556	68252	13.31	29.3997
556	68809	13.41	29.3917
556	69366	13.51	29.3768
556	69923	13.61	29.3554
556	70480	13.71	29.3276
556	71037	13.81	29.294
556	71594	13.91	29.2547
556	72159	14.01	29.21
556	72716	14.11	29.1601
556	73273	14.21	29.1054
556	73830	14.31	29.0461
556	74387	14.41	28.9823
556	74944	14.51	28.9144
556	75501	14.61	28.8424
556	76058	14.71	28.7667
556	76615	14.81	28.6874
556	77172	14.91	28.6046
556	77737	15.01	28.5185
556	78294	15.11	28.4319
556	78851	15.21	28.3502
556	79408	15.31	28.2782
556	79965	15.41	28.217
556	80522	15.51	28.1661
556	81079	15.61	28.1249
556	81636	15.71	28.0931
556	82193	15.81	28.0701
556	82750	15.91	28.0555
556	83315	16.01	28.0489
556	83872	16.11	28.0499
556	84429	16.21	28.0582
556	84986	16.31	28.0734
556	85543	16.41	28.0952
556	86100	16.51	28.1231
556	86657	16.61	28.1571
556	87214	16.71	28.1966
556	87771	16.81	28.2416
556	88328	16.91	28.2916
556	88893	17.01	28.3465
556	89450	17.11	28.4061
556	90007	17.21	28.47
556	90564	17.31	28.5381
556	91121	17.41	28.6102
556	91678	17.51	28.6824
556	92235	17.61	28.7488
556	92792	17.71	28.8057
556	93349	17.81	28.8525
556	93906	17.91	28.8897
556	94471	18.01	28.9178
556	95028	18.11	28.9372
556	95585	18.21	28.9484
556	96142	18.31	28.9518
556	96699	18.41	28.9476
556	97256	18.51	28.9364
556	97813	18.61	28.9185
556	98370	18.71	28.8941
556	98927	18.81	28.8636
556	99484	18.91	28.8273
556	100049	19.01	28.7854
556	100606	19.11	28.7383
556	101163	19.21	28.6862
556	101720	19.31	28.6294
556	102277	19.41	28.568
556	102834	19.51	28.5022
556	103391	19.61	28.4324
556	103948	19.71	28.3587
556	104505	19.81	28.2813
556	105062	19.91	28.2003
556	105627	20.01	28.1161
556	106184	20.11	28.0324
556	106741	20.21	27.9554
556	107298	20.31	27.8885
556	107855	20.41	27.8323
556	108412	20.51	27.786
556	108969	20.61	27.7493
556	109526	20.71	27.7217
556	110083	20.81	27.7027
556	110640	20.91	27.692
556	111205	21.01	27.6891
556	111762	21.11	27.6936
556	112319	21.21	27.7052
556	112876	21.31	27.7235
556	113433	21.41	27.7482
556	113990	21.51	27.779
556	114547	21.61	27.8157
556	115104	21.71	27.8578
556	115661	21.81	27.9052
556	116218	21.91	27.9576
556	116783	22.01	28.0147
556	117340	22.11	28.0763
556	117897	22.21	28.1423
556	118454	22.31	28.2123
556	119011	22.41	28.2862
556	119568	22.51	28.3612
556	120125	22.61	28.4318
556	120682	22.71	28.4931
556	121239	22.81	28.5442
556	121796	22.91	28.5855
556	122361	23.01	28.6175
556	122918	23.11	28.6407
556	123475	23.21	28.6554
556	124032	23.31	28.6621
556	124589	23.41	28.6611
556	125146	23.51	28.653
556	125703	23.61	28.6379
556	126260	23.71	28.6162
556	126817	23.81	28.5884
556	127374	23.91	28.5545
556	127939	24.01	28.5151
556	128496	24.11	28.4702
556	129053	24.21	28.4202
556	129610	24.31	28.3654
556	130167	24.41	28.3059
556	130724	24.51	28.242
556	131281	24.61	28.174
556	131838	24.71	28.1019
556	132395	24.81	28.0261
556	132952	24.91	27.9466
556	133517	25.01	27.8642
556	134074	25.11	27.7834
556	134631	25.21	27.7103
556	135188	25.31	27.6476
556	135745	25.41	27.5952
556	136302	25.51	27.5527
556	136859	25.61	27.5196
556	137416	25.71	27.4953
556	137973	25.81	27.4796
556	138530	25.91	27.4719
556	139095	26.01	27.4719
556	139652	26.11	27.4792
556	140209	26.21	27.4934
556	140766	26.31	27.5142
556	141323	26.41	27.5413
556	141880	26.51	27.5744
556	142437	26.61	27.6132
556	142994	26.71	27.6574
556	143551	26.81	27.7068
556	144108	26.91	27.761
556	144673	27.01	27.8199
556	145230	27.11	27.8832
556	145787	27.21	27.9508
556	146344	27.31	28.0223
556	146901	27.41	28.0977
556	147458	27.51	28.1746
556	148015	27.61	28.248
556	148572	27.71	28.3123
556	149129	27.81	28.3662
556	149686	27.91	28.4102
556	150251	28.01	28.4448
556	150808	28.11	28.4703
556	151365	28.21	28.4873
556	151922	28.31	28.4962
556	152479	28.41	28.4974
556	153036	28.51	28.4912
556	153593	28.61	28.478
556	154150	28.71	28.4582
556	154707	28.81	28.432
556	155264	28.91	28.3998
556	155829	29.01	28.3619
556	156386	29.11	28.3185
556	156943	29.21	28.2699
556	157500	29.31	28.2164
556	158057	29.41	28.1582
556	158614	29.51	28.0956
556	159171	29.61	28.0287
556	159728	29.71	27.9577
556	160285	29.81	27.8829
556	160842	29.91	27.8045
556	161407	30.01	27.7234
556	161964	30.11	27.6446
556	162521	30.21	27.574
556	163078	30.31	27.514
556	163635	30.41	27.4643
556	164192	30.51	27.4242
556	164749	30.61	27.3934
556	165306	30.71	27.3713
556	165863	30.81	27.3577
556	166420	30.91	27.352
556	166985	31.01	27.3539
556	167542	31.11	27.363
556	168099	31.21	27.3789
556	168656	31.31	27.4014
556	169213	31.41	27.4301
556	169770	31.51	27.4646
556	170327	31.61	27.5048
556	170884	31.71	27.5504
556	171441	31.81	27.601
556	171998	31.91	27.6564
556	172563	32.01	27.7165
556	173120	32.11	27.7809
556	173677	32.21	27.8495
556	174234	32.31	27.922
556	174791	32.41	27.9983
556	175348	32.51	28.0765
556	175905	32.61	28.1515
556	176462	32.71	28.2175
556	177019	32.81	28.2731
556	177576	32.91	28.3186
556	178141	33.01	28.3546
556	178698	33.11	28.3816
556	179255	33.21	28.4
556	179812	33.31	28.4101
556	180369	33.41	28.4125
556	180926	33.51	28.4075
556	181483	33.61	28.3954
556	182040	33.71	28.3766
556	182597	33.81	28.3514
556	183154	33.91	28.3202
556	183719	34.01	28.2831
556	184276	34.11	28.2406
556	184833	34.21	28.1928
556	185390	34.31	28.1401
556	185947	34.41	28.0826
556	186504	34.51	28.0207
556	187061	34.61	27.9544
556	187618	34.71	27.8841
556	188175	34.81	27.8099
556	188732	34.91	27.732
556	189297	35.01	27.6518
556	189854	35.11	27.574
556	190411	35.21	27.5049
556	190968	35.31	27.4463
556	191525	35.41	27.3978
556	192082	35.51	27.3591
556	192639	35.61	27.3295
556	193196	35.71	27.3086
556	193753	35.81	27.2961
556	194310	35.91	27.2915
556	194875	36.01	27.2943
556	195432	36.11	27.3044
556	195989	36.21	27.3212
556	196546	36.31	27.3446
556	197103	36.41	27.3741
556	197660	36.51	27.4094
556	198217	36.61	27.4504
556	198774	36.71	27.4966
556	199331	36.81	27.5479
556	199888	36.91	27.604
556	200453	37.01	27.6647
556	201010	37.11	27.7297
556	201567	37.21	27.7988
556	202124	37.31	27.8719
556	202681	37.41	27.9487
556	203238	37.51	28.0275
556	203795	37.61	28.1033
556	204352	37.71	28.1703
556	204909	37.81	28.2266
556	205466	37.91	28.273
556	206031	38.01	28.3097
556	206588	38.11	28.3374
556	207145	38.21	28.3565
556	207702	38.31	28.3673
556	208259	38.41	28.3703
556	208816	38.51	28.3659
556	209373	38.61	28.3543
556	209930	38.71	28.3361
556	210487	38.81	28.3114
556	211044	38.91	28.2806
556	211609	39.01	28.2441
556	212166	39.11	28.202
556	212723	39.21	28.1546
556	213280	39.31	28.1023
556	213837	39.41	28.0452
556	214394	39.51	27.9836
556	214951	39.61	27.9177
556	215508	39.71	27.8477
556	216065	39.81	27.7738
556	216622	39.91	27.6962
556	217187	40.01	27.6164
556	217744	40.11	27.5392
556	218301	40.21	27.4707
556	218858	40.31	27.4128
556	219415	40.41	27.365
556	219972	40.51	27.3269
556	220529	40.61	27.2979
556	221086	40.71	27.2777
556	221643	40.81	27.2657
556	222200	40.91	27.2615
556	222765	41.01	27.2649
556	223322	41.11	27.2755
556	223879	41.21	27.2928
556	224436	41.31	27.3165
556	224993	41.41	27.3464
556	225550	41.51	27.3822
556	226107	41.61	27.4235
556	226664	41.71	27.4701
556	227221	41.81	27.5217
556	227778	41.91	27.5781
556	228343	42.01	27.6391
556	228900	42.11	27.7044
556	229457	42.21	27.7738
556	230014	42.31	27.8471
556	230571	42.41	27.9242
556	231128	42.51	28.0033
556	231685	42.61	28.0795
556	232242	42.71	28.1469
556	232799	42.81	28.2037
556	233356	42.91	28.2504
556	233921	43.01	28.2876
556	234478	43.11	28.3156
556	235035	43.21	28.335
556	235592	43.31	28.3462
556	236149	43.41	28.3495
556	236706	43.51	28.3453
556	237263	43.61	28.3341
556	237820	43.71	28.3161
556	238377	43.81	28.2916
556	238934	43.91	28.2611
556	239499	44.01	28.2248
556	240056	44.11	28.1829
556	240613	44.21	28.1358
556	241170	44.31	28.0836
556	241727	44.41	28.0267
556	242284	44.51	27.9653
556	242841	44.61	27.8996
556	243398	44.71	27.8297
556	243955	44.81	27.756
556	244512	44.91	27.6786
556	245077	45.01	27.5989
556	245634	45.11	27.522
556	246191	45.21	27.4538
556	246748	45.31	27.3962
556	247305	45.41	27.3488
556	247862	45.51	27.3109
556	248419	45.61	27.2822
556	248976	45.71	27.2622
556	249533	45.81	27.2505
556	250090	45.91	27.2466
556	250655	46.01	27.2502
556	251212	46.11	27.261
556	251769	46.21	27.2785
556	252326	46.31	27.3024
556	252883	46.41	27.3325
556	253440	46.51	27.3684
556	253997	46.61	27.4099
556	254554	46.71	27.4567
556	255111	46.81	27.5085
556	255668	46.91	27.565
556	256233	47.01	27.6261
556	256790	47.11	27.6915
556	257347	47.21	27.7611
556	257904	47.31	27.8345
556	258461	47.41	27.9117
556	259018	47.51	27.991
556	259575	47.61	28.0674
556	260132	47.71	28.135
556	260689	47.81	28.192
556	261246	47.91	28.2389
556	261811	48.01	28.2762
556	262368	48.11	28.3045
556	262925	48.21	28.324
556	263482	48.31	28.3353
556	264039	48.41	28.3388
556	264596	48.51	28.3348
556	265153	48.61	28.3236
556	265710	48.71	28.3058
556	266267	48.81	28.2815
556	266824	48.91	28.2511
556	267389	49.01	28.2148
556	267946	49.11	28.1731
556	268503	49.21	28.126
556	269060	49.31	28.074
556	269617	49.41	28.0172
556	270174	49.51	27.9558
556	270731	49.61	27.8902
556	271288	49.71	27.8204
556	271845	49.81	27.7467
556	272402	49.91	27.6694
556	272967	50.01	27.5898
556	273524	50.11	27.513
556	274081	50.21	27.445
556	274638	50.31	27.3876
556	275195	50.41	27.3403
556	275752	50.51	27.3026
556	276309	50.61	27.274
556	276866	50.71	27.2542
556	277423	50.81	27.2425
556	277980	50.91	27.2388
556	278545	51.01	27.2425
556	279102	51.11	27.2534
556	279659	51.21	27.271
556	280216	51.31	27.295
556	280773	51.41	27.3252
556	281330	51.51	27.3612
556	281887	51.61	27.4028
556	282444	51.71	27.4496
556	283001	51.81	27.5014
556	283558	51.91	27.5581
556	284123	52.01	27.6192
556	284680	52.11	27.6847
556	285237	52.21	27.7543
556	285794	52.31	27.8278
556	286351	52.41	27.9051
556	286908	52.51	27.9844
556	287465	52.61	28.0609
556	288022	52.71	28.1286
556	288579	52.81	28.1857
556	289136	52.91	28.2327
556	289701	53.01	28.2702
556	290258	53.11	28.2985
556	290815	53.21	28.3181
556	291372	53.31	28.3295
556	291929	53.41	28.333
556	292486	53.51	28.3291
556	293043	53.61	28.3181
556	293600	53.71	28.3003
556	294157	53.81	28.276
556	294714	53.91	28.2457
556	295279	54.01	28.2095
556	295836	54.11	28.1678
556	296393	54.21	28.1208
556	296950	54.31	28.0688
556	297507	54.41	28.012
556	298064	54.51	27.9507
556	298621	54.61	27.8851
556	299178	54.71	27.8154
556	299735	54.81	27.7418
556	300292	54.91	27.6645
556	300857	55.01	27.585
556	301414	55.11	27.5082
556	301971	55.21	27.4403
556	302528	55.31	27.383
556	303085	55.41	27.3358
556	303642	55.51	27.2981
[...]
726	325584	59.454603238399	7
726	326141	59.554594079257	7
726	326698	59.654597920046	7
726	327255	59.754601760764	7
726	327812	59.854605601404	7
726	328363	59.954596441963	7
725	1070	1.255198410977	7
725	1627	1.355189251559	7
725	2184	1.455167092141	7
725	2740	1.555222932723	7
725	3296	1.655213773305	7
725	3853	1.755178613886	7
725	4409	1.855234454467	7
725	4966	1.955186295048	7
725	5532	2.055242135629	7
725	6088	2.15524597621	7
725	6644	2.255210816791	7
725	7200	2.355162657371	7
725	7756	2.455205497951	7
725	8312	2.555261338531	7
725	8868	2.655265179111	7
725	9424	2.755230019691	7
725	9980	2.855259860271	7
725	10536	2.955263700851	7
725	11100	3.055189541429	7
725	11656	3.155167382007	7
725	12212	3.255197222584	7
725	12768	3.355201063161	7
725	13324	3.455256903738	7
725	13880	3.555221744315	7
725	14436	3.655199584892	7
725	14992	3.755216425469	7
725	15548	3.855220266046	7
725	16104	3.955263106623	7
725	16668	4.055214947199	7
725	17224	4.155257787775	7
725	17780	4.255196628351	7
725	18336	4.355200468927	7
725	18892	4.4552303095	7
725	19448	4.555260150073	7
725	20004	4.655237990646	7
725	20560	4.755202831219	7
725	21116	4.855219671792	7
725	21672	4.955236512365	7
725	22237	5.055227352938	7
725	22794	5.155192193511	7
725	23351	5.255209034086	7
725	23908	5.355238874668	7
725	24465	5.455177715265	7
725	25022	5.555220555883	7
725	25579	5.655211396528	7
725	26136	5.755189237206	7
725	26693	5.855245077923	7
725	27250	5.955248918687	7
725	27815	6.055265759502	7
725	28372	6.155165600374	7
725	28929	6.255247441306	7
725	29486	6.355238282304	7
725	30043	6.455255123374	7
725	30600	6.555167964518	7
725	31157	6.655184805739	7
725	31714	6.755214647044	7
725	32271	6.855205488436	7
725	32828	6.955248329916	7
725	33393	7.055187171487	7
725	33950	7.155243013154	7
725	34507	7.255168854918	7
725	35064	7.355224696784	7
725	35621	7.455202538751	7
725	36178	7.555167380816	7
725	36735	7.655171222974	7
725	37292	7.755253065215	7
725	37849	7.855178907525	7
725	38406	7.955221749895	7
725	38971	8.055212592312	7
725	39528	8.155216434763	7
725	40085	8.255194277239	7
725	40642	8.355237119728	7
725	41199	8.455201962221	7
725	41756	8.555192804708	7
725	42313	8.65520964718	7
725	42870	8.755252489631	7
725	43427	8.85520433205	7
725	43984	8.955182174431	7
725	44549	9.055225016767	7
725	45106	9.155163859048	7
725	45663	9.255258701268	7
725	46220	9.355262543424	7
725	46777	9.455240385507	7
725	47334	9.555218227512	7
725	47891	9.655196069434	7
725	48448	9.755173911267	7
725	49005	9.855242753007	7
725	49562	9.955168594647	7
725	50127	10.055185436185	7
725	50684	10.15520227762	7
725	51241	10.255258118947	7
725	51798	10.355235960174	7
725	52355	10.455213801309	7
725	52912	10.555191642361	7
725	53469	10.65519548334	7
725	54026	10.755264324258	7
725	54583	10.855255165126	7
725	55140	10.955220005949	7
725	55705	11.055210846741	7
725	56262	11.155227687508	7
725	56819	11.255205528258	7
725	57376	11.355183368999	7
725	57933	11.455213209739	7
725	58490	11.555191050485	7
725	59047	11.655207891244	7
725	59604	11.755250732021	7
725	60161	11.855228572824	7
725	60718	11.955193413658	7
725	61283	12.055262254527	7
725	61840	12.155201095436	7
725	62397	12.255256936392	7
725	62954	12.355234777397	7
725	63511	12.455186618455	7
725	64068	12.555242459567	7
725	64625	12.655181300729	7
725	65182	12.75523714193	7
725	65739	12.855175983162	7
725	66296	12.955244824414	7
725	66861	13.055209665676	7
725	67418	13.155226506939	7
725	67975	13.255256348193	7
725	68532	13.355208189428	7
725	69089	13.455251030635	7
725	69646	13.55521587181	7
725	70203	13.655258712941	7
725	70760	13.755223554023	7
725	71317	13.855188395047	7
725	71874	13.955244236006	7
725	72439	14.055261076897	7
725	72996	14.155238917712	7
725	73553	14.255190758445	7
725	74110	14.355233599092	7
725	74667	14.455237439648	7
725	75224	14.555228280106	7
725	75781	14.655167120464	7
725	76338	14.755183960716	7
725	76895	14.855187800862	7
725	77452	14.955191640892	7
725	78017	15.055195480808	7
725	78574	15.155238320607	7
725	79131	15.25520316029	7
725	79688	15.355180999865	7
725	80245	15.455184839343	7
725	80802	15.555240678734	7
725	81359	15.65524451805	7
725	81916	15.755196357302	7
725	82473	15.8551871965	7
725	83030	15.955165035654	7
725	83595	16.055259874774	7
725	84152	16.155224713868	7
725	84709	16.255215552947	7
725	85266	16.35518039202	7
725	85823	16.455171231092	7
725	86380	16.555240070173	7
725	86937	16.65524390927	7
725	87494	16.755182748389	7
725	88051	16.855199587537	7
725	88608	16.955203426719	7
725	89173	17.055246265945	7
725	89730	17.155198105217	7
725	90287	17.255240944542	7
725	90844	17.355192783926	7
725	91401	17.455209623372	7
725	91958	17.555187462883	7
725	92515	17.655230302459	7
725	93072	17.755169142089	7
725	93629	17.855185981767	7
725	94186	17.955254821481	7
725	94751	18.055258661225	7
725	95308	18.155223500989	7
725	95865	18.255253340762	7
725	96422	18.355205180537	7
725	96979	18.455196020306	7
725	97536	18.555225860059	7
725	98093	18.655190699788	7
725	98650	18.755246539491	7
725	99207	18.855224379156	7
725	99764	18.955254218779	7
725	100329	19.055219058355	7
725	100886	19.155235897877	7
725	101443	19.255226737341	7
725	102000	19.355243576742	7
725	102557	19.455221416073	7
725	103114	19.555264255332	7
725	103671	19.655229094515	7
725	104228	19.755245933617	7
725	104785	19.855171772636	7
725	105342	19.955201611567	7
725	105907	20.055257450407	7
725	106464	20.15526128916	7
725	107021	20.255226127826	7
725	107578	20.355177966412	7
725	108135	20.455246804932	7
725	108692	20.555198643396	7
725	109249	20.655228481815	7
725	109806	20.755180320201	7
725	110363	20.855171158564	7
725	110920	20.955252996916	7
725	111485	21.055243835265	7
725	112042	21.15519567362	7
725	112599	21.25522551199	7
725	113156	21.355255350386	7
725	113713	21.455181188813	7
725	114270	21.55519802728	7
725	114827	21.655214865793	7
725	115384	21.755192704361	7
725	115941	21.85518354299	7
725	116498	21.955187381687	7
725	117063	22.055256220455	7
725	117620	22.155195059305	7
725	118177	22.255224898239	7
725	118734	22.355215737263	7
725	119291	22.455258576379	7
725	119848	22.555210415595	7
725	120405	22.655227254904	7
725	120962	22.755244094304	7
725	121519	22.855234933786	7
725	122076	22.955212773339	7
725	122641	23.055229612954	7
725	123198	23.155207452621	7
725	123755	23.255237292329	7
725	124312	23.355176132073	7
725	124869	23.455166971842	7
725	125426	23.555248811628	7
725	125983	23.655174651422	7
725	126540	23.755191491219	7
725	127097	23.85516933101	7
725	127654	23.955199170791	7
725	128219	24.055203010554	7
725	128776	24.155193850293	7
725	129333	24.255249690002	7
725	129890	24.355188529675	7
725	130447	24.455205369309	7
725	131004	24.5552482089	7
725	131561	24.65525204844	7
725	132118	24.755203887927	7
725	132675	24.855194727358	7
725	133232	24.955172566725	7
725	133797	25.055189406028	7
725	134354	25.155245245268	7
725	134911	25.255184084448	7
725	135468	25.355174923576	7
725	136025	25.455243762664	7
725	136582	25.555208601721	7
725	137139	25.655251440759	7
725	137696	25.755216279786	7
725	138253	25.855259118816	7
725	138810	25.955262957855	7
725	139375	26.055175796915	7
725	139932	26.155205636003	7
725	140489	26.255261475128	7
725	141046	26.355226314297	7
725	141603	26.455178153517	7
725	142160	26.555168992796	7
725	142717	26.655211832141	7
725	143274	26.755202671557	7
725	143831	26.855206511051	7
725	144388	26.955262350627	7
725	144953	27.055214190293	7
725	145510	27.15517903005	7
725	146067	27.255169869907	7
725	146624	27.355199709867	7
725	147181	27.455203549934	7
725	147738	27.555207390109	7
725	148295	27.655185230392	7
725	148852	27.755215070777	7
725	149409	27.855231911256	7
725	149966	27.955222751817	7
725	150531	28.055187592448	7
725	151088	28.155230433142	7
725	151645	28.255182273886	7
725	152202	28.355251114673	7
725	152759	28.455241955491	7
725	153316	28.555219796333	7
725	153873	28.65524963719	7
725	154430	28.755175478057	7
725	154987	28.855205318921	7
725	155544	28.955209159778	7
725	156109	29.055187000619	7
725	156666	29.155164841439	7
725	157223	29.255194682232	7
725	157780	29.35525052299	7
725	158337	29.455228363707	7
725	158894	29.555232204381	7
725	159451	29.655171045004	7
725	160008	29.755252885571	7
725	160565	29.855217726079	7
725	161122	29.955247566525	7
725	161687	30.055186406904	7
725	162244	30.155242247215	7
725	162801	30.255233087464	7
725	163358	30.355262927657	7
725	163915	30.455175767806	7
725	164472	30.555179607921	7
725	165029	30.655222448014	7
725	165586	30.755187288093	7
725	166143	30.855243128167	7
725	166700	30.955259968244	7
725	167265	31.055198808335	7
725	167822	31.155215648446	7
725	168379	31.255245488587	7
725	168936	31.355262328763	7
725	169493	31.455175168981	7
725	170050	31.555231009248	7
725	170607	31.655208849571	7
725	171164	31.755225689955	7
725	171721	31.855164530408	7
725	172278	31.955168370932	7
725	172843	32.055237211534	7
725	173400	32.155254052219	7
725	173957	32.255244892989	7
725	174514	32.355196733848	7
725	175071	32.455174574804	7
725	175628	32.555230415857	7
725	176185	32.655208257005	7
725	176742	32.755186098242	7
725	177299	32.855228939557	7
725	177856	32.955258780942	7
725	178421	33.055184622387	7
725	178978	33.155253463878	7
725	179535	33.255231305408	7
725	180092	33.355261146964	7
725	180649	33.455173988539	7
725	181206	33.555255830123	7
725	181763	33.655259671707	7
725	182320	33.755211513284	7
725	182877	33.855215354845	7
725	183434	33.955193196382	7
725	183999	34.055210037888	7
725	184556	34.155187879359	7
725	185113	34.255230720784	7
725	185670	34.355169562161	7
725	186227	34.455212403483	7
725	186784	34.555203244744	7
725	187341	34.65516808594	7
725	187898	34.755236927065	7
725	188455	34.855201768114	7
725	189012	34.955166609084	7
725	189577	35.055170449969	7
725	190134	35.155187290772	7
725	190691	35.255165131496	7
725	191248	35.355246972152	7
725	191805	35.455250812749	7
725	192362	35.555215653298	7
725	192919	35.655258493808	7
725	193476	35.755262334289	7
725	194033	35.85526617475	7
725	194590	35.9552440152	7
725	195155	36.05526085565	7
725	195712	36.155199696105	7
725	196269	36.255190536573	7
725	196826	36.355168377064	7
725	197383	36.455211217584	7
725	197940	36.555241058139	7
725	198497	36.655205898735	7
725	199054	36.755248739379	7
725	199611	36.855174580076	7
725	200168	36.955204420832	7
725	200733	37.055195261651	7
725	201290	37.155225102539	7
725	201847	37.255241943499	7
725	202404	37.355232784535	7
725	202961	37.455249625654	7
725	203518	37.555227466858	7
725	204075	37.655205308143	7
725	204632	37.755248149506	7
725	205189	37.855186990938	7
725	205746	37.955229832426	7
725	206311	38.055168673963	7
725	206868	38.155224515535	7
725	207425	38.255189357133	7
725	207982	38.355206198748	7
725	208539	38.455249040369	7
725	209096	38.55523988199	7
725	209653	38.6552047236	7
725	210210	38.755169565194	7
725	210767	38.855212406761	7
725	211324	38.955229248297	7
725	211889	39.055181089794	7
725	212446	39.155262931244	7
725	213003	39.255214772641	7
725	213560	39.35525761398	7
725	214117	39.455222455254	7
725	214674	39.55523929646	7
725	215231	39.655191137592	7
725	215788	39.755220978644	7
725	216345	39.855250819615	7
725	216902	39.955189660499	7
725	217467	40.055258501293	7
725	218024	40.155236341997	7
725	218581	40.255188182618	7
725	219138	40.355218023161	7
725	219695	40.455208863639	7
725	220252	40.555186704064	7
725	220809	40.655255544445	7
725	221366	40.755181384792	7
725	221923	40.855198225114	7
725	222480	40.955215065421	7
725	223045	41.055205905722	7
725	223602	41.155222746024	7
725	224159	41.255226586336	7
725	224716	41.355217426666	7
725	225273	41.455208267022	7
725	225830	41.555173107408	7
725	226387	41.655176947833	7
725	226944	41.755258788302	7
725	227501	41.855171628821	7
725	228058	41.955227469397	7
725	228623	42.055231310031	7
725	229180	42.155261150734	7
725	229737	42.255238991507	7
725	230294	42.355255832355	7
725	230851	42.455207673283	7
725	231408	42.555237514293	7
725	231965	42.655254355386	7
725	232522	42.755245196553	7
725	233079	42.855184037786	7
725	233636	42.955239879077	7
725	234201	43.055230720415	7
725	234758	43.155195561789	7
725	235315	43.255251403189	7
725	235872	43.355190244604	7
725	236429	43.455194086026	7
725	236986	43.555236927448	7
725	237543	43.655175768859	7
725	238100	43.755205610252	7
725	238657	43.855170451622	7
725	239214	43.955252292959	7
725	239779	44.055204134257	7
725	240336	44.155194975509	7
725	240893	44.255263816708	7
725	241450	44.355254657851	7
725	242007	44.45525849893	7
725	242564	44.555249339943	7
725	243121	44.655214180883	7
725	243678	44.755205021744	7
725	244235	44.855221862524	7
725	244792	44.955212703218	7
725	245357	45.055242543825	7
725	245914	45.155181384343	7
725	246471	45.255185224779	7
725	247028	45.355189065142	7
725	247585	45.455205905441	7
725	248142	45.555261745688	7
725	248699	45.655252585894	7
725	249256	45.755204426067	7
725	249813	45.855169266219	7
725	250370	45.955264106357	7
725	250935	46.05520294649	7
725	251492	46.155219786628	7
725	252049	46.255184626777	7
725	252606	46.355214466947	7
725	253163	46.455218307144	7
725	253720	46.555196147374	7
725	254277	46.655225987646	7
725	254834	46.755203827964	7
725	255391	46.855168668336	7
725	255948	46.955263508765	7
725	256513	47.055228349257	7
725	257070	47.155219189816	7
725	257627	47.255249030449	7
725	258184	47.355200871161	7
725	258741	47.455191711953	7
725	259298	47.555247552828	7
725	259855	47.655251393788	7
725	260412	47.755190234826	7
725	260969	47.855181075934	7
725	261526	47.9552239171	7
725	262091	48.055240758314	7
725	262648	48.155231599569	7
725	263205	48.255170440851	7
725	263762	48.355239282151	7
725	264319	48.455204123461	7
725	264876	48.555181964772	7
725	265433	48.655263806075	7
725	265990	48.755176647363	7
725	266547	48.855206488627	7
725	267104	48.955197329861	7
725	267669	49.055253171056	7
725	268226	49.155205012209	7
725	268783	49.255247853313	7
725	269340	49.35526469436	7
725	269897	49.455190535346	7
725	270454	49.555220376265	7
725	271011	49.655211217115	7
725	271568	49.755228057888	7
725	272125	49.855205898581	7
725	272682	49.95518373919	7
725	273247	50.055265579712	7
725	273804	50.155191420148	7
725	274361	50.255234260503	7
725	274918	50.355186100787	7
725	275475	50.455228941007	7
725	276032	50.555245781177	7
725	276589	50.655197621307	7
725	277146	50.755214461405	7
725	277703	50.855205301482	7
725	278260	50.955196141547	7
725	278825	51.055264981609	7
725	279382	51.155164821676	7
725	279939	51.255259661756	7
725	280496	51.355172501858	7
725	281053	51.455202341987	7
725	281610	51.555167182152	7
725	282167	51.655210022357	7
725	282724	51.75526586261	7
725	283281	51.855243702917	7
725	283838	51.955169543283	7
725	284403	52.055251383713	7
725	284960	52.155229224213	7
725	285517	52.255233064786	7
725	286074	52.355236905436	7
725	286631	52.455175746169	7
725	287188	52.555179586987	7
725	287745	52.65523542789	7
725	288302	52.755174268872	7
725	288859	52.855165109922	7
725	289416	52.955181951033	7
725	289981	53.055198792193	7
725	290538	53.155241633391	7
725	291095	53.255232474618	7
725	291652	53.355184315863	7
725	292209	53.455227157117	7
725	292766	53.555165998373	7
725	293323	53.655195839622	7
725	293880	53.755238680854	7
725	294437	53.855164522064	7
725	294994	53.955207363244	7
725	295559	54.055172204388	7
725	296116	54.155241045487	7
725	296673	54.255192886537	7
725	297230	54.355196727532	7
725	297787	54.455252568466	7
725	298344	54.555204409334	7
725	298901	54.655234250129	7
725	299458	54.755251090848	7
725	300015	54.855163931488	7
725	300572	54.955219772043	7
725	301137	55.055210612512	7
725	301694	55.155214452895	7
725	302251	55.255257293194	7
725	302808	55.355248133422	7
725	303365	55.455199973589	7
725	303922	55.555242813704	7
725	304479	55.65524665378	7
725	305036	55.755224493825	7
725	305593	55.855241333848	7
725	306150	55.955258173858	7
725	306715	56.055197013866	7
725	307272	56.15521385388	7
725	307829	56.255243693907	7
725	308386	56.355260533955	7
725	308943	56.455264374031	7
725	309500	56.55524221414	7
725	310057	56.655181054291	7
725	310614	56.755262894489	7
725	311171	56.85524073474	7
725	311728	56.955231575049	7
725	312293	57.055222415424	7
725	312850	57.155187255867	7
725	313407	57.255243096384	7
725	313964	57.355194936979	7
725	314521	57.455237777655	7
725	315078	57.555189618417	7
725	315635	57.655167459263	7
725	316192	57.755262300186	7
725	316749	57.85525314118	7
725	317306	57.955243982233	7
725	317871	58.055195823336	7
725	318428	58.155186664478	7
725	318985	58.255216505648	7
725	319542	58.355168346837	7
725	320099	58.455224188036	7
725	320656	58.555176029235	7
725	321213	58.655179870427	7
725	321770	58.755196711603	7
725	322327	58.855174552756	7
725	322884	58.955230393879	7
725	323449	59.055247234965	7
725	324006	59.155186076009	7
725	324563	59.255202917002	7
725	325120	59.355245757939	7
725	325677	59.455197598817	7
725	326234	59.555227439627	7
725	326791	59.655231280367	7
725	327348	59.755183121032	7
725	327905	59.855264961616	7
725	328462	59.955216802117	7
724	5115	2	0
724	10685	3	0
724	16253	4	0
724	21822	5	0
724	27399	6	0
724	32977	7	0
724	38555	8	0
724	44133	9	0
724	49711	10	0
724	55289	11	0
724	60867	12	0
724	66445	13	0
724	72023	14	0
724	77601	15	0
724	83179	16	0
724	88757	17	0
724	94335	18	0
724	99913	19	0
724	105491	20	0
724	111069	21	0
724	116647	22	0
724	122225	23	0
724	127803	24	0
724	133381	25	0
724	138959	26	0
724	144537	27	0
724	150115	28	0
724	155693	29	0
724	161271	30	0
724	166849	31	0
724	172427	32	0
724	178005	33	0
724	183583	34	0
724	189161	35	0
724	194739	36	0
724	200317	37	0
724	205895	38	0
724	211473	39	0
724	217051	40	0
724	222629	41	0
724	228207	42	0
724	233785	43	0
724	239363	44	0
724	244941	45	0
724	250519	46	0
724	256097	47	0
724	261675	48	0
724	267253	49	0
724	272831	50	0
724	278409	51	0
724	283987	52	0
724	289565	53	0
724	295143	54	0
724	300721	55	0
724	306299	56	0
724	311877	57	0
724	317455	58	0
724	323033	59	0
724	328611	60	0
723	5115	2	0.034729
723	10685	3	0.03969
723	16253	4	0.03969
723	21822	5	0.03969
723	27399	6	0.03969
723	32977	7	0.03969
723	38555	8	0.03969
723	44133	9	0.03969
723	49711	10	0.03969
723	55289	11	0.03969
723	60867	12	0.03969
723	66445	13	0.03969
723	72023	14	0.03969
723	77601	15	0.03969
723	83179	16	0.03969
723	88757	17	0.03969
723	94335	18	0.03969
723	99913	19	0.03969
723	105491	20	0.03969
723	111069	21	0.03969
723	116647	22	0.03969
723	122225	23	0.03969
723	127803	24	0.03969
723	133381	25	0.03969
723	138959	26	0.03969
723	144537	27	0.03969
723	150115	28	0.03969
723	155693	29	0.03969
723	161271	30	0.03969
723	166849	31	0.03969
723	172427	32	0.03969
723	178005	33	0.03969
723	183583	34	0.03969
723	189161	35	0.03969
723	194739	36	0.03969
723	200317	37	0.03969
723	205895	38	0.03969
723	211473	39	0.03969
723	217051	40	0.03969
723	222629	41	0.03969
723	228207	42	0.03969
723	233785	43	0.03969
723	239363	44	0.03969
723	244941	45	0.03969
723	250519	46	0.03969
723	256097	47	0.03969
723	261675	48	0.03969
723	267253	49	0.03969
723	272831	50	0.03969
723	278409	51	0.03969
723	283987	52	0.03969
723	289565	53	0.03969
723	295143	54	0.03969
723	300721	55	0.03969
723	306299	56	0.03969
723	311877	57	0.03969
723	317455	58	0.03969
723	323033	59	0.03969
723	328611	60	0.03969
722	5115	2	7
722	10685	3	7
722	16253	4	7
722	21822	5	7
722	27399	6	7
722	32977	7	7
722	38555	8	7
722	44133	9	7
722	49711	10	7
722	55289	11	7
722	60867	12	7
722	66445	13	7
722	72023	14	7
722	77601	15	7
722	83179	16	7
722	88757	17	7
722	94335	18	7
722	99913	19	7
722	105491	20	7
722	111069	21	7
722	116647	22	7
722	122225	23	7
722	127803	24	7
722	133381	25	7
722	138959	26	7
722	144537	27	7
722	150115	28	7
722	155693	29	7
722	161271	30	7
722	166849	31	7
722	172427	32	7
722	178005	33	7
722	183583	34	7
722	189161	35	7
722	194739	36	7
722	200317	37	7
722	205895	38	7
722	211473	39	7
722	217051	40	7
722	222629	41	7
722	228207	42	7
722	233785	43	7
722	239363	44	7
722	244941	45	7
722	250519	46	7
722	256097	47	7
722	261675	48	7
722	267253	49	7
722	272831	50	7
722	278409	51	7
722	283987	52	7
722	289565	53	7
722	295143	54	7
722	300721	55	7
722	306299	56	7
722	311877	57	7
722	317455	58	7
722	323033	59	7
722	328611	60	7
