version 2
run MyJoinManeuverNoGui-0-20210521-03:02:18-80351
attr actDelay 0.5
attr configname MyJoinManeuverNoGui
attr controller 0
attr datetime 20210521-03:02:18
attr experiment MyJoinManeuverNoGui
attr headway 0.3
attr inifile omnetpp.ini
attr iterationvars "$nCars=4, $controller=0, $sController=\"ACC\", $headway=0.3, $oscillationAmp=35, $actDelay=0.5, $thermalNoise=-95, $txPower=100, $packetLossRate=0.85, $leaderHeadway=1.2, $leaderSpeed=100, $priority=2"
attr iterationvarsf nCars=4,controller=0,sController=ACC,headway=0.3,oscillationAmp=35,actDelay=0.5,thermalNoise=-95,txPower=100,packetLossRate=0.85,leaderHeadway=1.2,leaderSpeed=100,priority=2-
attr leaderHeadway 1.2
attr leaderSpeed 100
attr measurement "$nCars=4, $controller=0, $sController=\"ACC\", $headway=0.3, $oscillationAmp=35, $actDelay=0.5, $thermalNoise=-95, $txPower=100, $packetLossRate=0.85, $leaderHeadway=1.2, $leaderSpeed=100, $priority=2"
attr nCars 4
attr network Highway
attr oscillationAmp 35
attr packetLossRate 0.85
attr priority 2
attr processid 80351
attr repetition 0
attr replication #0
attr resultdir results
attr runnumber 0
attr sController "\"ACC\""
attr seedset 0
attr thermalNoise -95
attr txPower 100
param **.controllerOmegaN 0.2
param **.controllerXi 1
param **.coreDebug false
param **.debug false
param **.headway 0.3s
param **.numberOfLanes 1
param **.numericController 0
param **.seed 0
param **.traffic.nCars 4
param **.traffic.nLanes 1
param **.traffic.platoonInsertDistance "2 m"
param **.traffic.platoonInsertHeadway "0.3 s"
param **.traffic.platoonInsertSpeed 100kmph
param **.traffic.platoonInsertTime "1 s"
param **.traffic.platoonSize 4
param **.traffic.platooningVType "\"vtypeauto\""
param **.traffic_type "\"JoinTrafficManager\""
param *.**.nic.mac1609_4.bitrate 6Mbps
param *.**.nic.mac1609_4.txPower 100mW
param *.**.nic.mac1609_4.useServiceChannel false
param *.**.nic.phy80211p.analogueModels "xmldoc(\"config.xml\")"
param *.**.nic.phy80211p.decider "xmldoc(\"config.xml\")"
param *.**.nic.phy80211p.maxTXPower 100mW
param *.**.nic.phy80211p.sensitivity -94dBm
param *.**.nic.phy80211p.thermalNoise -95dBm
param *.**.nic.phy80211p.usePropagationDelay false
param *.**.nic.phy80211p.useThermalNoise true
param *.annotations.draw false
param *.connectionManager.drawMaxIntfDist false
param *.connectionManager.maxInterfDist 2600m
param *.connectionManager.sendDirect true
param *.manager.autoShutdown true
param *.manager.configFile "\"./sumocfg/freeway.sumo.cfg\""
param *.manager.host "\"localhost\""
param *.manager.margin 25
param *.manager.moduleDisplayString "\"\""
param *.manager.moduleName "\"node\""
param *.manager.moduleType "\"org.car2x.veins.modules.application.platooning.PlatoonCar\""
param *.manager.updateInterval 0.01s
param *.manager.useGui true
param *.node[*].appl.controller "\"ACC\""
param *.node[*].appl.joinManeuver "\"JoinAtBack\""
param *.node[*].appl_type "\"GeneralPlatooningApp\""
param *.node[*].helper.nCars 4
param *.node[*].helper.nLanes 1
param *.node[*].helper.platoonSize 4
param *.node[*].helper_type "\"LocalPlatoonPositionHelper\""
param *.node[*].mobility.x 0
param *.node[*].mobility.y 0
param *.node[*].mobility.z 1.895
param *.node[*].prot.beaconingInterval "0.1 s"
param *.node[*].prot.packetSize 200
param *.node[*].prot.priority 2
param *.node[*].protocol_type "\"SimplePlatooningBeaconing\""
param *.node[*].scenario.accHeadway "0.1 s"
param *.node[*].scenario.brakingDeceleration "8 mpsps"
param *.node[*].scenario.caccC1 0.5
param *.node[*].scenario.caccOmegaN "0.2 Hz"
param *.node[*].scenario.caccXi 1
param *.node[*].scenario.controller "\"ACC\""
param *.node[*].scenario.engineTau "0.5 s"
param *.node[*].scenario.leaderHeadway 1.2s
param *.node[*].scenario.leaderOscillationFrequency "0.2 Hz"
param *.node[*].scenario.leaderSpeed 100kmph
param *.node[*].scenario.nCars 4
param *.node[*].scenario.oscillationAmplitude "35 kmph"
param *.node[*].scenario.ploegH "0.5 s"
param *.node[*].scenario.ploegKd 0.7
param *.node[*].scenario.ploegKp 0.2
param *.node[*].scenario.startBraking "55 s"
param *.node[*].scenario.startOscillating "55 s"
param *.node[*].scenario.stopOscillating "100 s"
param *.node[*].scenario.useBrakingDisturbance false
param *.node[*].scenario.useControllerAcceleration true
param *.node[*].scenario.useRealisticEngine false
param *.node[*].scenario.useSinusoidalDisturbance true
param *.node[*].scenario_type "\"MyJoinManeuverScenario\""
param *.node[*].unicast.packetLossRate 0.85
param *.obstacles.debug false
param *.playgroundSizeX 65000m
param *.playgroundSizeY 25000m
param *.playgroundSizeZ 50m
param *.world.use2D false
param *.world.useTorus false

vector 1  Highway.node[0].appl  distance  ETV
vector 2  Highway.node[0].appl  relativeSpeed  ETV
vector 3  Highway.node[0].appl  nodeId  ETV
vector 7  Highway.node[0].appl  acceleration  ETV
vector 8  Highway.node[0].appl  controllerAcceleration  ETV
vector 4  Highway.node[0].appl  speed  ETV
vector 5  Highway.node[0].appl  posx  ETV
vector 6  Highway.node[0].appl  posy  ETV
vector 24  Highway.node[1].appl  distance  ETV
vector 25  Highway.node[1].appl  relativeSpeed  ETV
vector 26  Highway.node[1].appl  nodeId  ETV
vector 30  Highway.node[1].appl  acceleration  ETV
vector 31  Highway.node[1].appl  controllerAcceleration  ETV
vector 27  Highway.node[1].appl  speed  ETV
vector 28  Highway.node[1].appl  posx  ETV
vector 29  Highway.node[1].appl  posy  ETV
vector 47  Highway.node[2].appl  distance  ETV
vector 48  Highway.node[2].appl  relativeSpeed  ETV
vector 49  Highway.node[2].appl  nodeId  ETV
vector 53  Highway.node[2].appl  acceleration  ETV
vector 54  Highway.node[2].appl  controllerAcceleration  ETV
vector 50  Highway.node[2].appl  speed  ETV
vector 51  Highway.node[2].appl  posx  ETV
vector 52  Highway.node[2].appl  posy  ETV
vector 70  Highway.node[3].appl  distance  ETV
vector 71  Highway.node[3].appl  relativeSpeed  ETV
vector 72  Highway.node[3].appl  nodeId  ETV
vector 76  Highway.node[3].appl  acceleration  ETV
vector 77  Highway.node[3].appl  controllerAcceleration  ETV
vector 73  Highway.node[3].appl  speed  ETV
vector 74  Highway.node[3].appl  posx  ETV
vector 75  Highway.node[3].appl  posy  ETV
vector 61  Highway.node[2].prot  frontDelay  ETV
vector 59  Highway.node[2].prot  frontDelayId  ETV
vector 9  Highway.node[0].prot  nodeId  ETV
vector 10  Highway.node[0].prot  busyTime  ETV
vector 11  Highway.node[0].prot  collisions  ETV
vector 32  Highway.node[1].prot  nodeId  ETV
vector 33  Highway.node[1].prot  busyTime  ETV
vector 34  Highway.node[1].prot  collisions  ETV
vector 55  Highway.node[2].prot  nodeId  ETV
vector 56  Highway.node[2].prot  busyTime  ETV
vector 57  Highway.node[2].prot  collisions  ETV
vector 78  Highway.node[3].prot  nodeId  ETV
vector 79  Highway.node[3].prot  busyTime  ETV
vector 80  Highway.node[3].prot  collisions  ETV
vector 84  Highway.node[3].prot  frontDelay  ETV
vector 82  Highway.node[3].prot  frontDelayId  ETV
vector 83  Highway.node[3].prot  leaderDelay  ETV
vector 81  Highway.node[3].prot  leaderDelayId  ETV
vector 37  Highway.node[1].prot  leaderDelay  ETV
vector 35  Highway.node[1].prot  leaderDelayId  ETV
vector 38  Highway.node[1].prot  frontDelay  ETV
vector 36  Highway.node[1].prot  frontDelayId  ETV
vector 93  Highway.node[4].appl  distance  ETV
vector 94  Highway.node[4].appl  relativeSpeed  ETV
vector 95  Highway.node[4].appl  nodeId  ETV
vector 99  Highway.node[4].appl  acceleration  ETV
vector 100  Highway.node[4].appl  controllerAcceleration  ETV
vector 96  Highway.node[4].appl  speed  ETV
vector 97  Highway.node[4].appl  posx  ETV
vector 98  Highway.node[4].appl  posy  ETV
vector 60  Highway.node[2].prot  leaderDelay  ETV
vector 58  Highway.node[2].prot  leaderDelayId  ETV
vector 101  Highway.node[4].prot  nodeId  ETV
vector 102  Highway.node[4].prot  busyTime  ETV
vector 103  Highway.node[4].prot  collisions  ETV
8	228	1.11	-0.00218518
8	366	1.21	-0.00213419
8	506	1.31	-0.00205408
8	646	1.41	-0.00195152
8	791	1.51	-0.00183238
8	929	1.61	-0.00170178
8	1067	1.71	-0.00156412
8	1206	1.81	-0.00142314
8	1346	1.91	-0.00128196
8	1492	2.01	-0.00114315
8	1632	2.11	-0.00100877
8	1768	2.21	-0.000880447
8	1912	2.31	-0.000759381
8	2050	2.41	-0.000646445
8	2190	2.51	-0.000542204
8	2332	2.61	-0.000446965
8	2472	2.71	-0.000360819
8	2610	2.81	-0.000283678
8	2752	2.91	-0.000215307
8	2895	3.01	-0.000155357
8	3060	3.11	-0.000103391
8	3259	3.21	-5.89069e-05
8	3458	3.31	-2.13575e-05
8	3657	3.41	9.82919e-06
8	3860	3.51	3.52368e-05
8	4057	3.61	5.54479e-05
8	4254	3.71	7.10335e-05
8	4456	3.81	8.25451e-05
8	4663	3.91	9.05081e-05
8	4869	4.01	9.54172e-05
8	5070	4.11	9.7733e-05
8	5275	4.21	9.78798e-05
8	5478	4.31	9.62447e-05
8	5681	4.41	9.31771e-05
8	5882	4.51	8.89894e-05
8	6079	4.61	8.39579e-05
8	6280	4.71	7.83245e-05
8	6479	4.81	7.22983e-05
8	6680	4.91	6.6058e-05
8	6886	5.01	5.9754e-05
8	7085	5.11	5.35107e-05
8	7284	5.21	4.74294e-05
8	7487	5.31	4.15898e-05
8	7684	5.41	3.60534e-05
8	7887	5.51	3.0865e-05
8	8092	5.61	2.60551e-05
8	8291	5.71	2.16419e-05
8	8490	5.81	1.76335e-05
8	8689	5.91	1.40289e-05
8	8891	6.01	1.08202e-05
8	9088	6.11	7.99392e-06
8	9289	6.21	5.532e-06
8	9492	6.31	3.41315e-06
8	9699	6.41	1.61374e-06
8	9902	6.51	1.08654e-07
8	10107	6.61	-1.12799e-06
8	10310	6.71	-2.12224e-06
8	10513	6.81	-2.89981e-06
8	10718	6.91	-3.48567e-06
8	10922	7.01	-3.90376e-06
8	11125	7.11	-4.17673e-06
8	11328	7.21	-4.32574e-06
8	11525	7.31	-4.3704e-06
8	11726	7.41	-4.32865e-06
8	11929	7.51	-4.21676e-06
8	12128	7.61	-4.04934e-06
8	12325	7.71	-3.83937e-06
8	12522	7.81	-3.59826e-06
8	12719	7.91	-3.33592e-06
8	12923	8.01	-3.06089e-06
8	13122	8.11	-2.78036e-06
8	13329	8.21	-2.50036e-06
8	13528	8.31	-2.22582e-06
8	13729	8.41	-1.96068e-06
8	13928	8.51	-1.708e-06
8	14131	8.61	-1.47009e-06
8	14334	8.71	-1.24855e-06
8	14531	8.81	-1.04441e-06
8	14732	8.91	-8.58219e-07
8	14936	9.01	-6.90082e-07
8	15139	9.11	-5.39774e-07
8	15342	9.21	-4.06787e-07
8	15549	9.31	-2.90396e-07
8	15752	9.41	-1.89707e-07
8	15955	9.51	-1.03704e-07
8	16152	9.61	-3.12909e-08
8	16355	9.71	2.86736e-08
8	16552	9.81	7.73515e-08
8	16757	9.91	1.15897e-07
8	16963	10.01	1.45439e-07
8	17160	10.11	1.67065e-07
8	17355	10.21	1.81809e-07
8	17556	10.31	1.90644e-07
8	17755	10.41	1.94472e-07
8	17958	10.51	1.94125e-07
8	18159	10.61	1.90358e-07
8	18358	10.71	1.83853e-07
8	18557	10.81	1.75219e-07
8	18762	10.91	1.64994e-07
8	18970	11.01	1.53647e-07
8	19165	11.11	1.41582e-07
8	19368	11.21	1.29146e-07
8	19567	11.31	1.16627e-07
8	19764	11.41	1.04266e-07
8	19969	11.51	9.22547e-08
8	20172	11.61	8.07471e-08
8	20373	11.71	6.98584e-08
8	20572	11.81	5.96732e-08
8	20775	11.91	5.02471e-08
8	20979	12.01	4.16133e-08
8	21176	12.11	3.37845e-08
8	21379	12.21	2.67558e-08
8	21582	12.31	2.05102e-08
8	21791	12.41	1.50187e-08
8	21986	12.51	1.02442e-08
8	22189	12.61	6.14406e-09
8	22388	12.71	2.67022e-09
8	22589	12.81	-2.27374e-10
8	22788	12.91	-2.60059e-09
8	22997	13.01	-4.50058e-09
8	24978	13.11	-5.97851e-09
8	25179	13.21	-7.08376e-09
8	25380	13.31	-7.86322e-09
8	25581	13.41	-8.36167e-09
8	25780	13.51	-8.62066e-09
8	25979	13.61	-8.67857e-09
8	26180	13.71	-8.57057e-09
8	26381	13.81	-8.32792e-09
8	26582	13.91	-7.97975e-09
8	26784	14.01	-7.55058e-09
8	26989	14.11	-7.06351e-09
8	27188	14.21	-6.53699e-09
8	27387	14.31	-5.98774e-09
8	27584	14.41	-5.42997e-09
8	27789	14.51	-4.87468e-09
8	27992	14.61	-4.33182e-09
8	28193	14.71	-3.80886e-09
8	28400	14.81	-3.31148e-09
8	28599	14.91	-2.84395e-09
8	28813	15.01	-2.40981e-09
8	29016	15.11	-2.01013e-09
8	29221	15.21	-1.64633e-09
8	29426	15.31	-1.31806e-09
8	29627	15.41	-1.02531e-09
8	29830	15.51	-7.66676e-10
8	30025	15.61	-5.40723e-10
8	30232	15.71	-3.46034e-10
8	30437	15.81	-1.79767e-10
8	30642	15.91	-4.01457e-11
8	30852	16.01	7.49623e-11
8	31051	16.11	1.68043e-10
8	31250	16.21	2.41585e-10
8	31455	16.31	2.97362e-10
8	31658	16.41	3.37863e-10
8	31857	16.51	3.64864e-10
8	32056	16.61	3.80851e-10
8	32263	16.71	3.86891e-10
8	32466	16.81	3.84759e-10
8	32669	16.91	3.76232e-10
8	32875	17.01	3.62377e-10
8	33076	17.11	3.44613e-10
8	33277	17.21	3.24007e-10
8	33478	17.31	3.00915e-10
8	33683	17.41	2.76756e-10
8	33886	17.51	2.52243e-10
8	34085	17.61	2.27374e-10
8	34286	17.71	2.0286e-10
8	34495	17.81	1.79057e-10
8	34702	17.91	1.56319e-10
8	34908	18.01	1.35003e-10
8	35115	18.11	1.15108e-10
8	35322	18.21	9.66338e-11
8	35527	18.31	7.99361e-11
8	35722	18.41	6.46594e-11
8	35919	18.51	5.08038e-11
8	36122	18.61	3.83693e-11
8	36329	18.71	2.73559e-11
8	36532	18.81	1.77636e-11
8	36737	18.91	9.59233e-12
8	36939	19.01	2.84217e-12
8	37142	19.11	-2.84217e-12
8	37341	19.21	-7.4607e-12
8	37538	19.31	-1.13687e-11
8	37737	19.41	-1.42109e-11
8	37934	19.51	-1.63425e-11
8	38133	19.61	-1.77636e-11
8	38340	19.71	-1.84741e-11
8	38543	19.81	-1.88294e-11
8	38742	19.91	-1.88294e-11
8	38944	20.01	-1.88294e-11
8	39151	20.11	-1.81188e-11
8	39352	20.21	-1.7053e-11
8	39549	20.31	-1.63425e-11
8	39744	20.41	-1.52767e-11
8	39947	20.51	-1.45661e-11
8	40146	20.61	-1.35003e-11
8	40351	20.71	-1.27898e-11
8	40552	20.81	-1.1724e-11
8	40755	20.91	-1.10134e-11
8	40961	21.01	-9.9476e-12
8	41166	21.11	-9.23706e-12
8	41365	21.21	-8.17124e-12
8	41564	21.31	-7.4607e-12
8	41771	21.41	-6.39488e-12
8	41974	21.51	-5.68434e-12
8	42169	21.61	-4.61853e-12
8	42368	21.71	-3.90799e-12
8	42569	21.81	-2.84217e-12
8	42774	21.91	-2.13163e-12
8	42986	22.01	-1.06581e-12
8	43189	22.11	-3.55271e-13
8	43390	22.21	7.10543e-13
8	43587	22.31	1.42109e-12
8	43786	22.41	2.13163e-12
8	43987	22.51	2.84217e-12
8	44184	22.61	3.19744e-12
8	44385	22.71	3.90799e-12
8	44582	22.81	4.26326e-12
8	44785	22.91	4.61853e-12
8	44989	23.01	5.32907e-12
8	45192	23.11	5.68434e-12
8	45391	23.21	5.68434e-12
8	45590	23.31	6.03961e-12
8	45787	23.41	6.39488e-12
8	45986	23.51	6.75016e-12
8	46189	23.61	6.75016e-12
8	46396	23.71	7.10543e-12
8	46601	23.81	7.10543e-12
8	46800	23.91	7.4607e-12
8	47010	24.01	7.4607e-12
8	47207	24.11	7.81597e-12
8	47416	24.21	7.81597e-12
8	47621	24.31	7.81597e-12
8	47822	24.41	7.81597e-12
8	48025	24.51	8.17124e-12
8	48226	24.61	8.17124e-12
8	48425	24.71	8.17124e-12
8	48626	24.81	8.17124e-12
8	48829	24.91	8.17124e-12
8	49035	25.01	8.52651e-12
8	49232	25.11	8.52651e-12
8	49437	25.21	8.52651e-12
8	49634	25.31	8.52651e-12
8	49839	25.41	8.52651e-12
8	50040	25.51	8.52651e-12
8	50235	25.61	8.52651e-12
8	50434	25.71	8.52651e-12
8	50633	25.81	8.52651e-12
8	50832	25.91	8.52651e-12
8	51034	26.01	8.88178e-12
8	51237	26.11	8.88178e-12
8	51442	26.21	8.88178e-12
8	51643	26.31	8.88178e-12
8	51848	26.41	8.88178e-12
8	52049	26.51	8.88178e-12
8	52254	26.61	8.88178e-12
8	52451	26.71	8.88178e-12
8	52650	26.81	8.88178e-12
8	52851	26.91	8.88178e-12
8	53055	27.01	8.88178e-12
8	53258	27.11	8.88178e-12
8	53459	27.21	8.88178e-12
8	53658	27.31	8.88178e-12
8	53859	27.41	8.88178e-12
8	54064	27.51	8.88178e-12
8	54263	27.61	8.88178e-12
8	54464	27.71	8.88178e-12
8	54673	27.81	8.88178e-12
8	54874	27.91	8.88178e-12
8	55076	28.01	8.88178e-12
8	55279	28.11	8.88178e-12
8	55482	28.21	8.88178e-12
8	55683	28.31	8.88178e-12
8	55884	28.41	8.88178e-12
8	56089	28.51	8.88178e-12
8	56286	28.61	8.88178e-12
8	56489	28.71	8.88178e-12
8	56694	28.81	8.88178e-12
8	56899	28.91	8.88178e-12
8	57105	29.01	8.88178e-12
8	57310	29.11	8.88178e-12
8	57507	29.21	8.88178e-12
8	57706	29.31	8.88178e-12
8	57909	29.41	8.88178e-12
8	58110	29.51	8.88178e-12
8	58309	29.61	8.88178e-12
8	58508	29.71	8.88178e-12
8	58709	29.81	8.88178e-12
8	58906	29.91	8.88178e-12
8	59116	30.01	8.88178e-12
8	59317	30.11	8.88178e-12
8	59522	30.21	8.88178e-12
8	59721	30.31	8.88178e-12
8	59916	30.41	8.88178e-12
8	60111	30.51	8.88178e-12
8	60312	30.61	8.88178e-12
8	60511	30.71	8.88178e-12
8	60714	30.81	8.88178e-12
8	60919	30.91	8.88178e-12
8	61123	31.01	8.88178e-12
8	61326	31.11	8.88178e-12
8	61537	31.21	8.88178e-12
8	61740	31.31	8.88178e-12
8	61939	31.41	8.88178e-12
8	62140	31.51	8.88178e-12
8	62341	31.61	8.88178e-12
8	62542	31.71	8.88178e-12
8	62741	31.81	8.88178e-12
8	62938	31.91	8.88178e-12
8	63148	32.01	8.88178e-12
8	63349	32.11	8.88178e-12
8	63556	32.21	8.88178e-12
8	63759	32.31	8.88178e-12
8	63962	32.41	8.88178e-12
8	64161	32.51	8.88178e-12
8	64360	32.61	8.88178e-12
8	64555	32.71	8.88178e-12
8	64760	32.81	8.88178e-12
8	64959	32.91	8.88178e-12
8	65167	33.01	8.88178e-12
8	65368	33.11	8.88178e-12
8	65565	33.21	8.88178e-12
8	65766	33.31	8.88178e-12
8	65969	33.41	8.88178e-12
8	66176	33.51	8.88178e-12
8	66377	33.61	8.88178e-12
8	66576	33.71	8.88178e-12
8	66773	33.81	8.88178e-12
8	66974	33.91	8.88178e-12
8	67174	34.01	8.88178e-12
8	67375	34.11	8.88178e-12
8	67574	34.21	8.88178e-12
8	67775	34.31	8.88178e-12
8	67980	34.41	8.88178e-12
8	68179	34.51	8.88178e-12
8	68378	34.61	8.88178e-12
8	68577	34.71	8.88178e-12
8	68778	34.81	8.88178e-12
8	68975	34.91	8.88178e-12
8	69183	35.01	8.88178e-12
8	69384	35.11	8.88178e-12
8	69583	35.21	8.88178e-12
8	69778	35.31	8.88178e-12
8	69977	35.41	8.88178e-12
8	70176	35.51	8.88178e-12
8	70381	35.61	8.88178e-12
8	70580	35.71	8.88178e-12
8	70777	35.81	8.88178e-12
8	70980	35.91	8.88178e-12
8	71184	36.01	8.88178e-12
8	71385	36.11	8.88178e-12
8	71592	36.21	8.88178e-12
8	71795	36.31	8.88178e-12
8	71992	36.41	8.88178e-12
8	72189	36.51	8.88178e-12
8	72390	36.61	8.88178e-12
8	72591	36.71	8.88178e-12
8	72792	36.81	8.88178e-12
8	72987	36.91	8.88178e-12
8	73195	37.01	8.88178e-12
8	73396	37.11	8.88178e-12
8	73599	37.21	8.88178e-12
8	73798	37.31	8.88178e-12
8	73999	37.41	8.88178e-12
8	74196	37.51	8.88178e-12
8	74391	37.61	8.88178e-12
8	74590	37.71	8.88178e-12
8	74791	37.81	8.88178e-12
8	74992	37.91	8.88178e-12
8	75194	38.01	8.88178e-12
8	75399	38.11	8.88178e-12
8	75600	38.21	8.88178e-12
8	75803	38.31	8.88178e-12
8	76000	38.41	8.88178e-12
8	76199	38.51	8.88178e-12
8	76402	38.61	8.88178e-12
8	76599	38.71	8.88178e-12
8	76800	38.81	8.88178e-12
8	77001	38.91	8.88178e-12
8	77209	39.01	8.88178e-12
8	77406	39.11	8.88178e-12
8	77609	39.21	8.88178e-12
8	77812	39.31	8.88178e-12
8	78007	39.41	8.88178e-12
8	78208	39.51	8.88178e-12
8	78413	39.61	8.88178e-12
8	78610	39.71	8.88178e-12
8	78809	39.81	8.88178e-12
8	79006	39.91	8.88178e-12
8	79210	40.01	8.88178e-12
8	79411	40.11	8.88178e-12
8	79610	40.21	8.88178e-12
8	79809	40.31	8.88178e-12
8	80010	40.41	8.88178e-12
8	80211	40.51	8.88178e-12
8	80408	40.61	8.88178e-12
8	80611	40.71	8.88178e-12
8	80816	40.81	8.88178e-12
8	81017	40.91	8.88178e-12
8	81219	41.01	8.88178e-12
8	81414	41.11	8.88178e-12
8	81617	41.21	8.88178e-12
8	81820	41.31	8.88178e-12
8	82025	41.41	8.88178e-12
8	82228	41.51	8.88178e-12
8	82427	41.61	8.88178e-12
8	82634	41.71	8.88178e-12
8	82837	41.81	8.88178e-12
8	83038	41.91	8.88178e-12
8	83242	42.01	8.88178e-12
8	83441	42.11	8.88178e-12
8	83640	42.21	8.88178e-12
8	83839	42.31	8.88178e-12
8	84038	42.41	8.88178e-12
8	84239	42.51	8.88178e-12
8	84440	42.61	8.88178e-12
8	84639	42.71	8.88178e-12
8	84842	42.81	8.88178e-12
8	85047	42.91	8.88178e-12
8	85253	43.01	8.88178e-12
8	85454	43.11	8.88178e-12
8	85651	43.21	8.88178e-12
8	85848	43.31	8.88178e-12
8	86055	43.41	8.88178e-12
8	86258	43.51	8.88178e-12
8	86455	43.61	8.88178e-12
8	86654	43.71	8.88178e-12
8	86851	43.81	8.88178e-12
8	87048	43.91	8.88178e-12
8	87256	44.01	8.88178e-12
8	87453	44.11	8.88178e-12
8	87650	44.21	8.88178e-12
8	87847	44.31	8.88178e-12
8	88050	44.41	8.88178e-12
8	88253	44.51	8.88178e-12
8	88454	44.61	8.88178e-12
8	88657	44.71	8.88178e-12
8	88858	44.81	8.88178e-12
8	89055	44.91	8.88178e-12
8	89263	45.01	8.88178e-12
8	89458	45.11	8.88178e-12
8	89657	45.21	8.88178e-12
8	89858	45.31	8.88178e-12
8	90063	45.41	8.88178e-12
8	90258	45.51	8.88178e-12
8	90465	45.61	8.88178e-12
8	90664	45.71	8.88178e-12
8	90861	45.81	8.88178e-12
8	91064	45.91	8.88178e-12
8	91270	46.01	8.88178e-12
8	91479	46.11	8.88178e-12
8	91682	46.21	8.88178e-12
8	91887	46.31	8.88178e-12
8	92090	46.41	8.88178e-12
8	92289	46.51	8.88178e-12
8	92490	46.61	8.88178e-12
8	92689	46.71	8.88178e-12
8	92896	46.81	8.88178e-12
8	93095	46.91	8.88178e-12
8	93305	47.01	8.88178e-12
8	93508	47.11	8.88178e-12
8	93717	47.21	8.88178e-12
8	93924	47.31	8.88178e-12
8	94123	47.41	8.88178e-12
8	94326	47.51	8.88178e-12
8	94531	47.61	8.88178e-12
8	94738	47.71	8.88178e-12
8	94941	47.81	8.88178e-12
8	95148	47.91	8.88178e-12
8	95352	48.01	8.88178e-12
8	95559	48.11	8.88178e-12
8	95756	48.21	8.88178e-12
8	95959	48.31	8.88178e-12
8	96158	48.41	8.88178e-12
8	96363	48.51	8.88178e-12
8	96562	48.61	8.88178e-12
8	96767	48.71	8.88178e-12
8	96968	48.81	8.88178e-12
8	97167	48.91	8.88178e-12
8	97371	49.01	8.88178e-12
8	97568	49.11	8.88178e-12
8	97771	49.21	8.88178e-12
8	97978	49.31	8.88178e-12
8	98177	49.41	8.88178e-12
8	98372	49.51	8.88178e-12
8	98569	49.61	8.88178e-12
8	98770	49.71	8.88178e-12
8	98973	49.81	8.88178e-12
8	99172	49.91	8.88178e-12
8	99378	50.01	8.88178e-12
8	99583	50.11	8.88178e-12
8	99784	50.21	8.88178e-12
8	99985	50.31	8.88178e-12
8	100186	50.41	8.88178e-12
8	100395	50.51	8.88178e-12
8	100598	50.61	8.88178e-12
8	100799	50.71	8.88178e-12
8	101000	50.81	8.88178e-12
8	101197	50.91	8.88178e-12
8	101403	51.01	8.88178e-12
8	101600	51.11	8.88178e-12
8	101797	51.21	8.88178e-12
8	102000	51.31	8.88178e-12
8	102209	51.41	8.88178e-12
8	102408	51.51	8.88178e-12
8	102613	51.61	8.88178e-12
8	102816	51.71	8.88178e-12
8	103011	51.81	8.88178e-12
8	103220	51.91	8.88178e-12
8	103424	52.01	8.88178e-12
8	103625	52.11	8.88178e-12
8	103822	52.21	8.88178e-12
8	104021	52.31	8.88178e-12
8	104224	52.41	8.88178e-12
8	104425	52.51	8.88178e-12
8	104628	52.61	8.88178e-12
8	104831	52.71	8.88178e-12
8	105030	52.81	8.88178e-12
8	105229	52.91	8.88178e-12
8	105437	53.01	8.88178e-12
8	105634	53.11	8.88178e-12
8	105841	53.21	8.88178e-12
8	106044	53.31	8.88178e-12
8	106239	53.41	8.88178e-12
8	106440	53.51	8.88178e-12
8	106637	53.61	8.88178e-12
8	106836	53.71	8.88178e-12
8	107033	53.81	8.88178e-12
8	107234	53.91	8.88178e-12
8	107438	54.01	8.88178e-12
8	107635	54.11	8.88178e-12
8	107834	54.21	8.88178e-12
8	108035	54.31	8.88178e-12
8	108236	54.41	8.88178e-12
8	108437	54.51	8.88178e-12
8	108638	54.61	8.88178e-12
8	108837	54.71	8.88178e-12
8	109032	54.81	8.88178e-12
8	109231	54.91	8.88178e-12
8	109438	55.01	8.88178e-12
8	109638	55.11	1.2185
8	109836	55.21	1.5
8	110034	55.31	1.5
8	110236	55.41	1.5
8	110436	55.51	1.5
8	110640	55.61	1.5
8	110846	55.71	1.5
8	111048	55.81	1.5
8	111248	55.91	1.5
8	111451	56.01	1.5
8	111663	56.11	1.5
8	111867	56.21	1.5
8	112073	56.31	1.5
8	112275	56.41	1.5
8	112475	56.51	1.5
8	112683	56.61	1.5
8	112883	56.71	1.5
8	113087	56.81	1.5
8	113285	56.91	1.5
8	113490	57.01	1.5
8	113692	57.11	1.5
8	113892	57.21	1.19532
8	114092	57.31	-0.110135
8	114292	57.41	-1.43483
8	114494	57.51	-1.5
8	114700	57.61	-1.5
8	114906	57.71	-1.5
8	115110	57.81	-1.5
8	115308	57.91	-1.5
8	115513	58.01	-1.5
8	115723	58.11	-1.5
8	115921	58.21	-1.5
8	116125	58.31	-1.5
8	116327	58.41	-1.5
8	116531	58.51	-1.5
8	116731	58.61	-1.5
8	116933	58.71	-1.5
8	117139	58.81	-1.5
8	117341	58.91	-1.5
8	117546	59.01	-1.5
8	117750	59.11	-1.5
8	117950	59.21	-1.5
8	118154	59.31	-1.5
8	118358	59.41	-1.5
8	118562	59.51	-1.5
8	118774	59.61	-1.5
8	118978	59.71	-1.5
8	119180	59.81	-1.5
8	119380	59.91	-1.42922
8	119585	60.01	-0.0635706
8	119781	60.11	1.28626
8	119985	60.21	1.5
8	120187	60.31	1.5
8	120387	60.41	1.5
8	120585	60.51	1.5
8	120787	60.61	1.5
8	120993	60.71	1.5
8	121195	60.81	1.5
8	121395	60.91	1.5
8	121604	61.01	1.5
8	121802	61.11	1.5
8	122008	61.21	1.5
8	122208	61.31	1.5
8	122410	61.41	1.5
8	122614	61.51	1.5
8	122814	61.61	1.5
8	123016	61.71	1.5
8	123226	61.81	1.5
8	123430	61.91	1.5
8	123641	62.01	1.5
8	123837	62.11	1.5
8	124033	62.21	1.5
8	124233	62.31	0.533514
8	124431	62.41	-0.802365
8	124641	62.51	-1.5
8	124841	62.61	-1.5
8	125045	62.71	-1.5
8	125247	62.81	-1.5
8	125457	62.91	-1.5
8	125664	63.01	-1.5
8	125864	63.11	-1.5
8	126064	63.21	-1.5
8	126262	63.31	-1.5
8	126460	63.41	-1.5
8	126660	63.51	-1.5
8	126856	63.61	-1.5
8	127060	63.71	-1.5
8	127260	63.81	-1.5
8	127460	63.91	-1.5
8	127673	64.01	-1.5
8	127873	64.11	-1.5
8	128069	64.21	-1.5
8	128269	64.31	-1.5
8	128467	64.41	-1.5
8	128663	64.51	-1.5
8	128867	64.61	-1.5
8	129067	64.71	-1.5
8	129271	64.81	-1.5
8	129473	64.91	-0.936591
8	129682	65.01	0.423865
8	129880	65.11	1.5
8	130086	65.21	1.5
8	130292	65.31	1.5
8	130492	65.41	1.5
8	130694	65.51	1.5
8	130896	65.61	1.5
8	131096	65.71	1.5
8	131300	65.81	1.5
8	131508	65.91	1.5
8	131717	66.01	1.5
8	131921	66.11	1.5
8	132131	66.21	1.5
8	132329	66.31	1.5
8	132531	66.41	1.5
8	132731	66.51	1.5
8	132931	66.61	1.5
8	133135	66.71	1.5
8	133337	66.81	1.5
8	133539	66.91	1.5
8	133742	67.01	1.5
8	133944	67.11	1.5
8	134148	67.21	1.5
8	134346	67.31	0.912279
8	134546	67.41	-0.427673
8	134744	67.51	-1.5
8	134946	67.61	-1.5
8	135148	67.71	-1.5
8	135350	67.81	-1.5
8	135554	67.91	-1.5
8	135763	68.01	-1.5
8	135965	68.11	-1.5
8	136163	68.21	-1.5
8	136361	68.31	-1.5
8	136565	68.41	-1.5
8	136765	68.51	-1.5
8	136965	68.61	-1.5
8	137165	68.71	-1.5
8	137369	68.81	-1.5
8	137567	68.91	-1.5
8	137782	69.01	-1.5
8	137986	69.11	-1.5
8	138184	69.21	-1.5
8	138386	69.31	-1.5
8	138592	69.41	-1.5
8	138798	69.51	-1.5
8	139002	69.61	-1.5
8	139204	69.71	-1.5
8	139416	69.81	-1.5
8	139618	69.91	-0.633362
8	139821	70.01	0.723919
8	140023	70.11	1.5
8	140227	70.21	1.5
8	140433	70.31	1.5
8	140637	70.41	1.5
8	140835	70.51	1.5
8	141035	70.61	1.5
8	141235	70.71	1.5
8	141433	70.81	1.5
8	141637	70.91	1.5
8	141842	71.01	1.5
8	142040	71.11	1.5
8	142240	71.21	1.5
8	142440	71.31	1.5
8	142642	71.41	1.5
8	142842	71.51	1.5
8	143050	71.61	1.5
8	143250	71.71	1.5
8	143464	71.81	1.5
8	143668	71.91	1.5
8	143873	72.01	1.5
8	144073	72.11	1.5
8	144269	72.21	1.5
8	144471	72.31	1.1557
8	144673	72.41	-0.186836
8	144877	72.51	-1.5
8	145075	72.61	-1.5
8	145283	72.71	-1.5
8	145485	72.81	-1.5
8	145689	72.91	-1.5
8	145898	73.01	-1.5
8	146102	73.11	-1.5
8	146302	73.21	-1.5
8	146504	73.31	-1.5
8	146702	73.41	-1.5
8	146910	73.51	-1.5
8	147108	73.61	-1.5
8	147308	73.71	-1.5
8	147514	73.81	-1.5
8	147716	73.91	-1.5
8	147917	74.01	-1.5
8	148119	74.11	-1.5
8	148319	74.21	-1.5
8	148521	74.31	-1.5
8	148723	74.41	-1.5
8	148923	74.51	-1.5
8	149123	74.61	-1.5
8	149325	74.71	-1.5
8	149535	74.81	-1.5
8	149739	74.91	-0.438313
8	149946	75.01	0.916926
8	150148	75.11	1.5
8	150348	75.21	1.5
8	150546	75.31	1.5
8	150748	75.41	1.5
8	150946	75.51	1.5
8	151156	75.61	1.5
8	151356	75.71	1.5
8	151562	75.81	1.5
8	151760	75.91	1.5
8	151969	76.01	1.5
8	152171	76.11	1.5
8	152371	76.21	1.5
8	152575	76.31	1.5
8	152775	76.41	1.5
8	152977	76.51	1.5
8	153181	76.61	1.5
8	153385	76.71	1.5
8	153589	76.81	1.5
8	153789	76.91	1.5
8	153994	77.01	1.5
8	154192	77.11	1.5
8	154390	77.21	1.5
8	154596	77.31	1.31228
8	154794	77.41	-0.0319202
8	154998	77.51	-1.37805
8	155198	77.61	-1.5
8	155402	77.71	-1.5
8	155602	77.81	-1.5
8	155806	77.91	-1.5
8	156017	78.01	-1.5
8	156221	78.11	-1.5
8	156421	78.21	-1.5
8	156619	78.31	-1.5
8	156819	78.41	-1.5
8	157021	78.51	-1.5
8	157221	78.61	-1.5
8	157423	78.71	-1.5
8	157623	78.81	-1.5
8	157827	78.91	-1.5
8	158032	79.01	-1.5
8	158232	79.11	-1.5
8	158434	79.21	-1.5
8	158636	79.31	-1.5
8	158842	79.41	-1.5
8	159042	79.51	-1.5
8	159246	79.61	-1.5
8	159444	79.71	-1.5
8	159648	79.81	-1.5
8	159850	79.91	-0.320567
8	160059	80.01	1.03342
8	160263	80.11	1.5
8	160463	80.21	1.5
8	160667	80.31	1.5
8	160865	80.41	1.5
8	161069	80.51	1.5
8	161273	80.61	1.5
8	161477	80.71	1.5
8	161679	80.81	1.5
8	161879	80.91	1.5
8	162082	81.01	1.5
8	162280	81.11	1.5
8	162482	81.21	1.5
8	162682	81.31	1.5
8	162884	81.41	1.5
8	163084	81.51	1.5
8	163288	81.61	1.5
8	163488	81.71	1.5
8	163684	81.81	1.5
8	163884	81.91	1.5
8	164097	82.01	1.5
8	164307	82.11	1.5
8	164509	82.21	1.5
8	164707	82.31	1.40672
8	164905	82.41	0.0615169
8	165107	82.51	-1.28711
8	165307	82.61	-1.5
8	165511	82.71	-1.5
8	165715	82.81	-1.5
8	165915	82.91	-1.5
8	166128	83.01	-1.5
8	166330	83.11	-1.5
8	166534	83.21	-1.5
8	166734	83.31	-1.5
8	166938	83.41	-1.5
8	167138	83.51	-1.5
8	167346	83.61	-1.5
8	167554	83.71	-1.5
8	167758	83.81	-1.5
8	167958	83.91	-1.5
8	168161	84.01	-1.5
8	168361	84.11	-1.5
8	168561	84.21	-1.5
8	168761	84.31	-1.5
8	168961	84.41	-1.5
8	169161	84.51	-1.5
8	169363	84.61	-1.5
8	169563	84.71	-1.5
8	169765	84.81	-1.5
8	169969	84.91	-0.253762
8	170180	85.01	1.09942
8	170380	85.11	1.5
8	170582	85.21	1.5
8	170782	85.31	1.5
8	170982	85.41	1.5
8	171180	85.51	1.5
8	171382	85.61	1.5
8	171586	85.71	1.5
8	171788	85.81	1.5
8	171992	85.91	1.5
8	172201	86.01	1.5
8	172403	86.11	1.5
8	172607	86.21	1.5
8	172803	86.31	1.5
8	173003	86.41	1.5
8	173205	86.51	1.5
8	173405	86.61	1.5
8	173615	86.71	1.5
8	173819	86.81	1.5
8	174023	86.91	1.5
8	174232	87.01	1.5
8	174432	87.11	1.5
8	174630	87.21	1.5
8	174834	87.31	1.45977
8	175030	87.41	0.113999
8	175228	87.51	-1.23603
8	175426	87.61	-1.5
8	175628	87.71	-1.5
8	175826	87.81	-1.5
8	176026	87.91	-1.5
8	176233	88.01	-1.5
8	176439	88.11	-1.5
8	176639	88.21	-1.5
8	176841	88.31	-1.5
8	177047	88.41	-1.5
8	177243	88.51	-1.5
8	177449	88.61	-1.5
8	177651	88.71	-1.5
8	177853	88.81	-1.5
8	178051	88.91	-1.5
8	178258	89.01	-1.5
8	178458	89.11	-1.5
8	178656	89.21	-1.5
8	178862	89.31	-1.5
8	179062	89.41	-1.5
8	179264	89.51	-1.5
8	179464	89.61	-1.5
8	179666	89.71	-1.5
8	179868	89.81	-1.5
8	180068	89.91	-0.216308
8	180277	90.01	1.13622
8	180487	90.11	1.5
8	180687	90.21	1.5
8	180899	90.31	1.5
8	181095	90.41	1.5
8	181295	90.51	1.5
8	181497	90.61	1.5
8	181701	90.71	1.5
8	181903	90.81	1.5
8	182099	90.91	1.5
8	182312	91.01	1.5
8	182510	91.11	1.5
8	182710	91.21	1.5
8	182912	91.31	1.5
8	183110	91.41	1.5
8	183314	91.51	1.5
8	183510	91.61	1.5
8	183710	91.71	1.5
8	183910	91.81	1.5
8	184112	91.91	1.5
8	184319	92.01	1.5
8	184523	92.11	1.5
8	184723	92.21	1.5
8	184925	92.31	1.48842
8	185123	92.41	0.142348
8	185323	92.51	-1.20844
8	185527	92.61	-1.5
8	185727	92.71	-1.5
8	185931	92.81	-1.5
8	186137	92.91	-1.5
8	186342	93.01	-1.5
8	186542	93.11	-1.5
8	186742	93.21	-1.5
8	186946	93.31	-1.5
8	187148	93.41	-1.5
8	187348	93.51	-1.5
8	187550	93.61	-1.5
8	187752	93.71	-1.5
8	187952	93.81	-1.5
8	188154	93.91	-1.5
8	188359	94.01	-1.5
8	188559	94.11	-1.5
8	188757	94.21	-1.5
8	188955	94.31	-1.5
8	189163	94.41	-1.5
8	189365	94.51	-1.5
8	189569	94.61	-1.5
8	189775	94.71	-1.5
8	189973	94.81	-1.5
8	190173	94.91	-0.196125
8	190378	95.01	1.15599
8	190578	95.11	1.5
8	190778	95.21	1.5
8	190982	95.31	1.5
8	191184	95.41	1.5
8	191386	95.51	1.5
8	191586	95.61	1.5
8	191788	95.71	1.5
8	191986	95.81	1.5
8	192190	95.91	1.5
8	192395	96.01	1.5
8	192597	96.11	1.5
8	192793	96.21	1.5
8	192999	96.31	1.5
8	193203	96.41	1.5
8	193403	96.51	1.5
8	193607	96.61	1.5
8	193811	96.71	1.5
8	194007	96.81	1.5
8	194209	96.91	1.5
8	194414	97.01	1.5
8	194618	97.11	1.5
8	194820	97.21	1.5
8	195022	97.31	1.5
8	195226	97.41	0.1573
8	195432	97.51	-1.19389
8	195630	97.61	-1.5
8	195834	97.71	-1.5
8	196044	97.81	-1.5
8	196244	97.91	-1.5
8	196459	98.01	-1.5
8	196659	98.11	-1.5
8	196865	98.21	-1.5
8	197063	98.31	-1.5
8	197265	98.41	-1.5
8	197465	98.51	-1.5
8	197669	98.61	-1.5
8	197877	98.71	-1.5
8	198081	98.81	-1.5
8	198289	98.91	-1.5
8	198492	99.01	-1.5
8	198696	99.11	-1.5
8	198896	99.21	-1.5
8	199096	99.31	-1.5
8	199304	99.41	-1.5
8	199516	99.51	-1.5
8	199722	99.61	-1.5
8	199922	99.71	-1.5
8	200124	99.81	-1.5
8	200330	99.91	-0.185471
8	200539	100.01	1.1664
8	200734	100.11	1.26437
8	200937	100.21	1.32207
8	201140	100.31	1.34568
8	201341	100.41	1.34092
8	201540	100.51	1.31296
8	201743	100.61	1.26648
8	201942	100.71	1.20563
8	202145	100.81	1.13409
8	202344	100.91	1.05506
8	202544	101.01	0.971303
8	202745	101.11	0.885173
8	202946	101.21	0.798641
8	203147	101.31	0.71333
8	203350	101.41	0.630551
8	203557	101.51	0.551334
8	203756	101.61	0.47646
8	203953	101.71	0.406491
8	204152	101.81	0.341802
8	204355	101.91	0.282603
8	204557	102.01	0.228971
8	204756	102.11	0.180867
8	204959	102.21	0.138162
8	205160	102.31	0.10065
8	205363	102.41	0.0680721
8	205562	102.51	0.0401259
8	205761	102.61	0.0164807
8	205956	102.71	-0.0032123
8	206151	102.81	-0.0193098
8	206350	102.91	-0.032169
8	206554	103.01	-0.042141
8	206755	103.11	-0.0495657
8	206958	103.21	-0.0547675
8	207155	103.31	-0.0580526
8	207356	103.41	-0.0597062
8	207557	103.51	-0.0599919
8	207762	103.61	-0.0591502
8	207967	103.71	-0.0573989
8	208170	103.81	-0.0549327
8	208367	103.91	-0.0519242
8	208577	104.01	-0.048525
8	208774	104.11	-0.0448661
8	208969	104.21	-0.0410598
8	209172	104.31	-0.0372008
8	209371	104.41	-0.0333679
8	209570	104.51	-0.0296251
8	209769	104.61	-0.0260234
8	209972	104.71	-0.022602
8	210179	104.81	-0.0193898
8	210380	104.91	-0.0164069
8	210588	105.01	-0.0136657
8	210789	105.11	-0.0111718
8	210986	105.21	-0.00892556
8	211185	105.31	-0.00692278
8	211394	105.41	-0.00515563
8	211593	105.51	-0.00361349
8	211802	105.61	-0.00228358
8	212001	105.71	-0.00115163
8	212198	105.81	-0.00020239
8	212395	105.91	0.000579951
8	212597	106.01	0.00121134
8	212800	106.11	0.00170758
8	213005	106.21	0.00208403
8	213212	106.31	0.00235548
8	213411	106.41	0.00253591
8	213612	106.51	0.00263845
8	213813	106.61	0.00267524
8	214014	106.71	0.00265744
8	214209	106.81	0.00259517
8	214408	106.91	0.00249755
8	214614	107.01	0.00237266
8	214817	107.11	0.00222766
8	215012	107.21	0.00206875
8	215207	107.31	0.00190129
8	215412	107.41	0.0017298
8	215609	107.51	0.0015581
8	215814	107.61	0.0013893
8	216017	107.71	0.00122591
8	216226	107.81	0.00106989
8	216425	107.91	0.0009227
8	216627	108.01	0.000785407
8	216828	108.11	0.000658692
8	217023	108.21	0.000542928
8	217228	108.31	0.000438222
8	217429	108.41	0.000344468
8	217632	108.51	0.000261378
8	217833	108.61	0.000188528
8	218028	108.71	0.000125383
8	218225	108.81	7.13342e-05
8	218426	108.91	2.57156e-05
8	218636	109.01	-1.21687e-05
8	218833	109.11	-4.30288e-05
8	219030	109.21	-6.7573e-05
8	219229	109.31	-8.64959e-05
8	219428	109.41	-0.000100468
8	219625	109.51	-0.000110128
8	219820	109.61	-0.000116077
8	220023	109.71	-0.000118876
8	220226	109.81	-0.000119039
8	220427	109.91	-0.000117038
8	220627	110.01	-0.000113298
8	220830	110.11	-0.000108197
8	221029	110.21	-0.000102072
8	221230	110.31	-9.52168e-05
8	221437	110.41	-8.78853e-05
8	221638	110.51	-8.02945e-05
8	221845	110.61	-7.26274e-05
8	222048	110.71	-6.5035e-05
8	222253	110.81	-5.76401e-05
8	222452	110.91	-5.05399e-05
8	222660	111.01	-4.38088e-05
8	222861	111.11	-3.75012e-05
8	223058	111.21	-3.16541e-05
8	223259	111.31	-2.62898e-05
8	223462	111.41	-2.14176e-05
8	223659	111.51	-1.70366e-05
8	223854	111.61	-1.31371e-05
8	224057	111.71	-9.70247e-06
8	224256	111.81	-6.71088e-06
8	224451	111.91	-4.13637e-06
8	224653	112.01	-1.95019e-06
8	224858	112.11	-1.21777e-07
8	225055	112.21	1.38034e-06
8	225260	112.31	2.58784e-06
8	225467	112.41	3.532e-06
8	225668	112.51	4.24319e-06
8	225871	112.61	4.7505e-06
8	226076	112.71	5.08148e-06
8	226275	112.81	5.26185e-06
8	226470	112.91	5.31544e-06
8	226676	113.01	5.26407e-06
8	226881	113.11	5.12751e-06
8	227080	113.21	4.92351e-06
8	227281	113.31	4.66786e-06
8	227482	113.41	4.37442e-06
8	227685	113.51	4.05523e-06
8	227888	113.61	3.72065e-06
8	228089	113.71	3.37945e-06
8	228290	113.81	3.03893e-06
8	228491	113.91	2.70508e-06
8	228701	114.01	2.38269e-06
8	228902	114.11	2.07548e-06
8	229107	114.21	1.78623e-06
8	229310	114.31	1.51692e-06
8	229513	114.41	1.26877e-06
8	229714	114.51	1.04246e-06
8	229915	114.61	8.38097e-07
8	230124	114.71	6.5542e-07
8	230325	114.81	4.93806e-07
8	230522	114.91	3.5237e-07
8	230730	115.01	2.30022e-07
8	230927	115.11	1.25529e-07
8	231132	115.21	3.75568e-08
8	231337	115.31	-3.52848e-08
8	231538	115.41	-9.44073e-08
8	231745	115.51	-1.41215e-07
8	231946	115.61	-1.77081e-07
8	232151	115.71	-2.03327e-07
8	232352	115.81	-2.21212e-07
8	232549	115.91	-2.31916e-07
8	232763	116.01	-2.36537e-07
8	232968	116.11	-2.36086e-07
8	233171	116.21	-2.31481e-07
8	233376	116.31	-2.23552e-07
8	233581	116.41	-2.13037e-07
8	233782	116.51	-2.00591e-07
8	233983	116.61	-1.86783e-07
8	234184	116.71	-1.72105e-07
8	234385	116.81	-1.56977e-07
8	234582	116.91	-1.41752e-07
8	234792	117.01	-1.26719e-07
8	234995	117.11	-1.12114e-07
8	235198	117.21	-9.81228e-08
8	235399	117.31	-8.48843e-08
8	235598	117.41	-7.2502e-08
8	235797	117.51	-6.10438e-08
8	235996	117.61	-5.05491e-08
8	236197	117.71	-4.10331e-08
8	236396	117.81	-3.2491e-08
8	236597	117.91	-2.49003e-08
8	236799	118.01	-1.82268e-08
8	236996	118.11	-1.24256e-08
8	237203	118.21	-7.44365e-09
8	237400	118.31	-3.22302e-09
8	237601	118.41	2.97007e-10
8	237802	118.51	3.17932e-09
8	238003	118.61	5.48681e-09
8	238210	118.71	7.28164e-09
8	238411	118.81	8.62315e-09
8	238612	118.91	9.56888e-09
8	238822	119.01	1.01732e-08
8	239023	119.11	1.04865e-08
8	239226	119.21	1.05555e-08
8	239427	119.31	1.04226e-08
8	239626	119.41	1.0127e-08
8	239829	119.51	9.70246e-09
8	240032	119.61	9.18057e-09
8	240233	119.71	8.58726e-09
8	240434	119.81	7.94671e-09
8	240637	119.91	7.2788e-09
7	228	1.11	-0.000358191
7	366	1.21	-0.000681704
7	506	1.31	-0.00093487
7	646	1.41	-0.00112579
7	791	1.51	-0.00126221
7	929	1.61	-0.00135149
7	1067	1.71	-0.00140049
7	1206	1.81	-0.00141557
7	1346	1.91	-0.00140255
7	1492	2.01	-0.00136671
7	1632	2.11	-0.0013128
7	1768	2.21	-0.00124502
7	1912	2.31	-0.0011671
7	2050	2.41	-0.00108223
7	2190	2.51	-0.000993208
7	2332	2.61	-0.000902362
7	2472	2.71	-0.000811651
7	2610	2.81	-0.000722679
7	2752	2.91	-0.000636729
7	2895	3.01	-0.0005548
7	3060	3.11	-0.000477639
7	3259	3.21	-0.000405773
7	3458	3.31	-0.00033954
7	3657	3.41	-0.000279116
7	3860	3.51	-0.000224541
7	4057	3.61	-0.000175743
7	4254	3.71	-0.00013256
7	4456	3.81	-9.47571e-05
7	4663	3.91	-6.2046e-05
7	4869	4.01	-3.40986e-05
7	5070	4.11	-1.05605e-05
7	5275	4.21	8.93844e-06
7	5478	4.31	2.4774e-05
7	5681	4.41	3.73203e-05
7	5882	4.51	4.69433e-05
7	6079	4.61	5.39956e-05
7	6280	4.71	5.88124e-05
7	6479	4.81	6.1709e-05
7	6680	4.91	6.29785e-05
7	6886	5.01	6.28903e-05
7	7085	5.11	6.169e-05
7	7284	5.21	5.95988e-05
7	7487	5.31	5.68144e-05
7	7684	5.41	5.35112e-05
7	7887	5.51	4.98416e-05
7	8092	5.61	4.59373e-05
7	8291	5.71	4.19105e-05
7	8490	5.81	3.78555e-05
7	8689	5.91	3.38499e-05
7	8891	6.01	2.99569e-05
7	9088	6.11	2.62259e-05
7	9289	6.21	2.26948e-05
7	9492	6.31	1.93911e-05
7	9699	6.41	1.6333e-05
7	9902	6.51	1.35314e-05
7	10107	6.61	1.09904e-05
7	10310	6.71	8.70882e-06
7	10513	6.81	6.6809e-06
7	10718	6.91	4.89747e-06
7	10922	7.01	3.3466e-06
7	11125	7.11	2.01432e-06
7	11328	7.21	8.85256e-07
7	11525	7.31	-5.68459e-08
7	11726	7.41	-8.28678e-07
7	11929	7.51	-1.44699e-06
7	12128	7.61	-1.92826e-06
7	12325	7.71	-2.28849e-06
7	12522	7.81	-2.54296e-06
7	12719	7.91	-2.7061e-06
7	12923	8.01	-2.79139e-06
7	13122	8.11	-2.8113e-06
7	13329	8.21	-2.77721e-06
7	13528	8.31	-2.69943e-06
7	13729	8.41	-2.58721e-06
7	13928	8.51	-2.44874e-06
7	14131	8.61	-2.29123e-06
7	14334	8.71	-2.12092e-06
7	14531	8.81	-1.94317e-06
7	14732	8.91	-1.7625e-06
7	14936	9.01	-1.58267e-06
7	15139	9.11	-1.40677e-06
7	15342	9.21	-1.23723e-06
7	15549	9.31	-1.07596e-06
7	15752	9.41	-9.24364e-07
7	15955	9.51	-7.83424e-07
7	16152	9.61	-6.53753e-07
7	16355	9.71	-5.35652e-07
7	16552	9.81	-4.2916e-07
7	16757	9.91	-3.34103e-07
7	16963	10.01	-2.5013e-07
7	17160	10.11	-1.76757e-07
7	17355	10.21	-1.13395e-07
7	17556	10.31	-5.93825e-08
7	17755	10.41	-1.40084e-08
7	17958	10.51	2.34657e-08
7	18159	10.61	5.3787e-08
7	18358	10.71	7.76954e-08
7	18557	10.81	9.59155e-08
7	18762	10.91	1.09142e-07
7	18970	11.01	1.18035e-07
7	19165	11.11	1.23212e-07
7	19368	11.21	1.2525e-07
7	19567	11.31	1.24675e-07
7	19764	11.41	1.21968e-07
7	19969	11.51	1.17559e-07
7	20172	11.61	1.11834e-07
7	20373	11.71	1.05132e-07
7	20572	11.81	9.77476e-08
7	20775	11.91	8.99373e-08
7	20979	12.01	8.19171e-08
7	21176	12.11	7.38677e-08
7	21379	12.21	6.59401e-08
7	21582	12.31	5.82538e-08
7	21791	12.41	5.09036e-08
7	21986	12.51	4.39606e-08
7	22189	12.61	3.74765e-08
7	22388	12.71	3.14852e-08
7	22589	12.81	2.60055e-08
7	22788	12.91	2.10438e-08
7	22997	13.01	1.65958e-08
7	24978	13.11	1.26498e-08
7	25179	13.21	9.18554e-09
7	25380	13.31	6.17888e-09
7	25581	13.41	3.60174e-09
7	25780	13.51	1.42322e-09
7	25979	13.61	-3.90088e-10
7	26180	13.71	-1.8705e-09
7	26381	13.81	-3.05107e-09
7	26582	13.91	-3.96518e-09
7	26784	14.01	-4.64375e-09
7	26989	14.11	-5.11768e-09
7	27188	14.21	-5.41434e-09
7	27387	14.31	-5.56071e-09
7	27584	14.41	-5.58096e-09
7	27789	14.51	-5.49747e-09
7	27992	14.61	-5.33085e-09
7	28193	14.71	-5.09743e-09
7	28400	14.81	-4.81464e-09
7	28599	14.91	-4.49667e-09
7	28813	15.01	-4.15525e-09
7	29016	15.11	-3.80034e-09
7	29221	15.21	-3.44151e-09
7	29426	15.31	-3.08518e-09
7	29627	15.41	-2.73772e-09
7	29830	15.51	-2.40306e-09
7	30025	15.61	-2.08544e-09
7	30232	15.71	-1.78773e-09
7	30437	15.81	-1.51132e-09
7	30642	15.91	-1.25766e-09
7	30852	16.01	-1.02673e-09
7	31051	16.11	-8.18901e-10
7	31250	16.21	-6.33804e-10
7	31455	16.31	-4.70735e-10
7	31658	16.41	-3.28271e-10
7	31857	16.51	-2.05702e-10
7	32056	16.61	-1.00897e-10
7	32263	16.71	-1.35003e-11
7	32466	16.81	5.82645e-11
7	32669	16.91	1.16174e-10
7	32875	17.01	1.61648e-10
7	33076	17.11	1.95755e-10
7	33277	17.21	2.20624e-10
7	33478	17.31	2.36966e-10
7	33683	17.41	2.45848e-10
7	33886	17.51	2.4869e-10
7	34085	17.61	2.46914e-10
7	34286	17.71	2.40874e-10
7	34495	17.81	2.31282e-10
7	34702	17.91	2.19913e-10
7	34908	18.01	2.05702e-10
7	35115	18.11	1.91491e-10
7	35322	18.21	1.7657e-10
7	35527	18.31	1.59872e-10
7	35722	18.41	1.44595e-10
7	35919	18.51	1.30385e-10
7	36122	18.61	1.16174e-10
7	36329	18.71	1.01963e-10
7	36532	18.81	8.7752e-11
7	36737	18.91	7.35412e-11
7	36939	19.01	6.21725e-11
7	37142	19.11	5.15143e-11
7	37341	19.21	4.08562e-11
7	37538	19.31	3.16192e-11
7	37737	19.41	2.45137e-11
7	37934	19.51	1.74083e-11
7	38133	19.61	1.03029e-11
7	38340	19.71	6.03961e-12
7	38543	19.81	2.4869e-12
7	38742	19.91	-1.06581e-12
7	38944	20.01	-4.61853e-12
7	39151	20.11	-8.17124e-12
7	39352	20.21	-8.88178e-12
7	39549	20.31	-8.88178e-12
7	39744	20.41	-8.88178e-12
7	39947	20.51	-8.88178e-12
7	40146	20.61	-8.88178e-12
7	40351	20.71	-8.88178e-12
7	40552	20.81	-8.88178e-12
7	40755	20.91	-8.88178e-12
7	40961	21.01	-8.88178e-12
7	41166	21.11	-8.88178e-12
7	41365	21.21	-8.88178e-12
7	41564	21.31	-8.88178e-12
7	41771	21.41	-8.88178e-12
7	41974	21.51	-8.88178e-12
7	42169	21.61	-8.88178e-12
7	42368	21.71	-8.88178e-12
7	42569	21.81	-8.88178e-12
7	42774	21.91	-8.88178e-12
7	42986	22.01	-8.88178e-12
7	43189	22.11	-8.88178e-12
7	43390	22.21	-8.17124e-12
7	43587	22.31	-7.4607e-12
7	43786	22.41	-6.75016e-12
7	43987	22.51	-6.03961e-12
7	44184	22.61	-5.68434e-12
7	44385	22.71	-4.9738e-12
7	44582	22.81	-4.61853e-12
7	44785	22.91	-4.26326e-12
7	44989	23.01	-3.55271e-12
7	45192	23.11	-3.19744e-12
7	45391	23.21	-3.19744e-12
7	45590	23.31	-2.84217e-12
7	45787	23.41	-2.4869e-12
7	45986	23.51	-2.13163e-12
7	46189	23.61	-2.13163e-12
7	46396	23.71	-1.77636e-12
7	46601	23.81	-1.77636e-12
7	46800	23.91	-1.42109e-12
7	47010	24.01	-1.42109e-12
7	47207	24.11	-1.06581e-12
7	47416	24.21	-1.06581e-12
7	47621	24.31	-1.06581e-12
7	47822	24.41	-1.06581e-12
7	48025	24.51	-7.10543e-13
7	48226	24.61	-7.10543e-13
7	48425	24.71	-7.10543e-13
7	48626	24.81	-7.10543e-13
7	48829	24.91	-7.10543e-13
7	49035	25.01	-3.55271e-13
7	49232	25.11	-3.55271e-13
7	49437	25.21	-3.55271e-13
7	49634	25.31	-3.55271e-13
7	49839	25.41	-3.55271e-13
7	50040	25.51	-3.55271e-13
7	50235	25.61	-3.55271e-13
7	50434	25.71	-3.55271e-13
7	50633	25.81	-3.55271e-13
7	50832	25.91	-3.55271e-13
7	51034	26.01	0
7	51237	26.11	0
7	51442	26.21	0
7	51643	26.31	0
7	51848	26.41	0
7	52049	26.51	0
7	52254	26.61	0
7	52451	26.71	0
7	52650	26.81	0
7	52851	26.91	0
7	53055	27.01	0
7	53258	27.11	0
7	53459	27.21	0
7	53658	27.31	0
7	53859	27.41	0
7	54064	27.51	0
7	54263	27.61	0
7	54464	27.71	0
7	54673	27.81	0
7	54874	27.91	0
7	55076	28.01	0
7	55279	28.11	0
7	55482	28.21	0
7	55683	28.31	0
7	55884	28.41	0
7	56089	28.51	0
7	56286	28.61	0
7	56489	28.71	0
7	56694	28.81	0
7	56899	28.91	0
7	57105	29.01	0
7	57310	29.11	0
7	57507	29.21	0
7	57706	29.31	0
7	57909	29.41	0
7	58110	29.51	0
7	58309	29.61	0
7	58508	29.71	0
7	58709	29.81	0
7	58906	29.91	0
7	59116	30.01	0
7	59317	30.11	0
7	59522	30.21	0
7	59721	30.31	0
7	59916	30.41	0
7	60111	30.51	0
7	60312	30.61	0
7	60511	30.71	0
7	60714	30.81	0
7	60919	30.91	0
7	61123	31.01	0
7	61326	31.11	0
7	61537	31.21	0
7	61740	31.31	0
7	61939	31.41	0
7	62140	31.51	0
7	62341	31.61	0
7	62542	31.71	0
7	62741	31.81	0
7	62938	31.91	0
7	63148	32.01	0
7	63349	32.11	0
7	63556	32.21	0
7	63759	32.31	0
7	63962	32.41	0
7	64161	32.51	0
7	64360	32.61	0
7	64555	32.71	0
7	64760	32.81	0
7	64959	32.91	0
7	65167	33.01	0
7	65368	33.11	0
7	65565	33.21	0
7	65766	33.31	0
7	65969	33.41	0
7	66176	33.51	0
7	66377	33.61	0
7	66576	33.71	0
7	66773	33.81	0
7	66974	33.91	0
7	67174	34.01	0
7	67375	34.11	0
7	67574	34.21	0
7	67775	34.31	0
7	67980	34.41	0
7	68179	34.51	0
7	68378	34.61	0
7	68577	34.71	0
7	68778	34.81	0
7	68975	34.91	0
7	69183	35.01	0
7	69384	35.11	0
7	69583	35.21	0
7	69778	35.31	0
7	69977	35.41	0
7	70176	35.51	0
7	70381	35.61	0
7	70580	35.71	0
7	70777	35.81	0
7	70980	35.91	0
7	71184	36.01	0
7	71385	36.11	0
7	71592	36.21	0
7	71795	36.31	0
7	71992	36.41	0
7	72189	36.51	0
7	72390	36.61	0
7	72591	36.71	0
7	72792	36.81	0
7	72987	36.91	0
7	73195	37.01	0
7	73396	37.11	0
7	73599	37.21	0
7	73798	37.31	0
7	73999	37.41	0
7	74196	37.51	0
7	74391	37.61	0
7	74590	37.71	0
7	74791	37.81	0
7	74992	37.91	0
7	75194	38.01	0
7	75399	38.11	0
7	75600	38.21	0
7	75803	38.31	0
7	76000	38.41	0
7	76199	38.51	0
7	76402	38.61	0
7	76599	38.71	0
7	76800	38.81	0
7	77001	38.91	0
7	77209	39.01	0
7	77406	39.11	0
7	77609	39.21	0
7	77812	39.31	0
7	78007	39.41	0
7	78208	39.51	0
7	78413	39.61	0
7	78610	39.71	0
7	78809	39.81	0
7	79006	39.91	0
7	79210	40.01	0
7	79411	40.11	0
7	79610	40.21	0
7	79809	40.31	0
7	80010	40.41	0
7	80211	40.51	0
7	80408	40.61	0
7	80611	40.71	0
7	80816	40.81	0
7	81017	40.91	0
7	81219	41.01	0
7	81414	41.11	0
7	81617	41.21	0
7	81820	41.31	0
7	82025	41.41	0
7	82228	41.51	0
7	82427	41.61	0
7	82634	41.71	0
7	82837	41.81	0
7	83038	41.91	0
7	83242	42.01	0
7	83441	42.11	0
7	83640	42.21	0
7	83839	42.31	0
7	84038	42.41	0
7	84239	42.51	0
7	84440	42.61	0
7	84639	42.71	0
7	84842	42.81	0
7	85047	42.91	0
7	85253	43.01	0
7	85454	43.11	0
7	85651	43.21	0
7	85848	43.31	0
7	86055	43.41	0
7	86258	43.51	0
7	86455	43.61	0
7	86654	43.71	0
7	86851	43.81	0
7	87048	43.91	0
7	87256	44.01	0
7	87453	44.11	0
7	87650	44.21	0
7	87847	44.31	0
7	88050	44.41	0
7	88253	44.51	0
7	88454	44.61	0
7	88657	44.71	0
7	88858	44.81	0
7	89055	44.91	0
7	89263	45.01	0
7	89458	45.11	0
7	89657	45.21	0
7	89858	45.31	0
7	90063	45.41	0
7	90258	45.51	0
7	90465	45.61	0
7	90664	45.71	0
7	90861	45.81	0
7	91064	45.91	0
7	91270	46.01	0
7	91479	46.11	0
7	91682	46.21	0
7	91887	46.31	0
7	92090	46.41	0
7	92289	46.51	0
7	92490	46.61	0
7	92689	46.71	0
7	92896	46.81	0
7	93095	46.91	0
7	93305	47.01	0
7	93508	47.11	0
7	93717	47.21	0
7	93924	47.31	0
7	94123	47.41	0
7	94326	47.51	0
7	94531	47.61	0
7	94738	47.71	0
7	94941	47.81	0
7	95148	47.91	0
7	95352	48.01	0
7	95559	48.11	0
7	95756	48.21	0
7	95959	48.31	0
7	96158	48.41	0
7	96363	48.51	0
7	96562	48.61	0
7	96767	48.71	0
7	96968	48.81	0
7	97167	48.91	0
7	97371	49.01	0
7	97568	49.11	0
7	97771	49.21	0
7	97978	49.31	0
7	98177	49.41	0
7	98372	49.51	0
7	98569	49.61	0
7	98770	49.71	0
7	98973	49.81	0
7	99172	49.91	0
7	99378	50.01	0
7	99583	50.11	0
7	99784	50.21	0
7	99985	50.31	0
7	100186	50.41	0
7	100395	50.51	0
7	100598	50.61	0
7	100799	50.71	0
7	101000	50.81	0
7	101197	50.91	0
7	101403	51.01	0
7	101600	51.11	0
7	101797	51.21	0
7	102000	51.31	0
7	102209	51.41	0
7	102408	51.51	0
7	102613	51.61	0
7	102816	51.71	0
7	103011	51.81	0
7	103220	51.91	0
7	103424	52.01	0
7	103625	52.11	0
7	103822	52.21	0
7	104021	52.31	0
7	104224	52.41	0
7	104425	52.51	0
7	104628	52.61	0
7	104831	52.71	0
7	105030	52.81	0
7	105229	52.91	0
7	105437	53.01	0
7	105634	53.11	0
7	105841	53.21	0
7	106044	53.31	0
7	106239	53.41	0
7	106440	53.51	0
7	106637	53.61	0
7	106836	53.71	0
7	107033	53.81	0
7	107234	53.91	0
7	107438	54.01	0
7	107635	54.11	0
7	107834	54.21	0
7	108035	54.31	0
7	108236	54.41	0
7	108437	54.51	0
7	108638	54.61	0
7	108837	54.71	0
7	109032	54.81	0
7	109231	54.91	0
7	109438	55.01	0
7	109638	55.11	0.0238922
7	109836	55.21	0.243325
7	110034	55.31	0.469089
7	110236	55.41	0.654294
7	110436	55.51	0.806226
7	110640	55.61	0.930864
7	110846	55.71	1.03311
7	111048	55.81	1.11699
7	111248	55.91	1.1858
7	111451	56.01	1.24224
7	111663	56.11	1.28855
7	111867	56.21	1.32654
7	112073	56.31	1.3577
7	112275	56.41	1.38326
7	112475	56.51	1.40424
7	112683	56.61	1.42144
7	112883	56.71	1.43555
7	113087	56.81	1.44713
7	113285	56.91	1.45663
7	113490	57.01	1.46442
7	113692	57.11	1.47081
7	113892	57.21	1.47008
7	114092	57.31	1.38318
7	114292	57.41	1.07822
7	114494	57.51	0.618113
7	114700	57.61	0.237591
7	114906	57.71	-0.0745705
7	115110	57.81	-0.330651
7	115308	57.91	-0.540727
7	115513	58.01	-0.713062
7	115723	58.11	-0.854437
7	115921	58.21	-0.970413
7	116125	58.31	-1.06555
7	116327	58.41	-1.1436
7	116531	58.51	-1.20763
7	116731	58.61	-1.26016
7	116933	58.71	-1.30324
7	117139	58.81	-1.33859
7	117341	58.91	-1.36759
7	117546	59.01	-1.39138
7	117750	59.11	-1.41089
7	117950	59.21	-1.4269
7	118154	59.31	-1.44003
7	118358	59.41	-1.45081
7	118562	59.51	-1.45964
7	118774	59.61	-1.46689
7	118978	59.71	-1.47284
7	119180	59.81	-1.47772
7	119380	59.91	-1.48033
7	119585	60.01	-1.43225
7	119781	60.11	-1.14873
7	119985	60.21	-0.698697
7	120187	60.31	-0.303697
7	120387	60.41	0.0203402
7	120585	60.51	0.286164
7	120787	60.61	0.504231
7	120993	60.71	0.683123
7	121195	60.81	0.829876
7	121395	60.91	0.950265
7	121604	61.01	1.04903
7	121802	61.11	1.13004
7	122008	61.21	1.19651
7	122208	61.31	1.25103
7	122410	61.41	1.29576
7	122614	61.51	1.33245
7	122814	61.61	1.36255
7	123016	61.71	1.38724
7	123226	61.81	1.4075
7	123430	61.91	1.42412
7	123641	62.01	1.43775
7	123837	62.11	1.44893
7	124033	62.21	1.45811
7	124233	62.31	1.44668
7	124431	62.41	1.24496
7	124641	62.51	0.854127
7	124841	62.61	0.431204
7	125045	62.71	0.0842598
7	125247	62.81	-0.200355
7	125457	62.91	-0.433839
7	125664	63.01	-0.625376
7	125864	63.11	-0.782504
7	126064	63.21	-0.911403
7	126262	63.31	-1.01715
7	126460	63.41	-1.10389
7	126660	63.51	-1.17505
7	126856	63.61	-1.23343
7	127060	63.71	-1.28132
7	127260	63.81	-1.32061
7	127460	63.91	-1.35283
7	127673	64.01	-1.37927
7	127873	64.11	-1.40096
7	128069	64.21	-1.41875
7	128269	64.31	-1.43335
7	128467	64.41	-1.44532
7	128663	64.51	-1.45515
7	128867	64.61	-1.4632
7	129067	64.71	-1.46981
7	129271	64.81	-1.47524
7	129473	64.91	-1.46864
7	129682	65.01	-1.33456
7	129880	65.11	-0.987352
7	130086	65.21	-0.540495
7	130292	65.31	-0.173916
7	130492	65.41	0.126806
7	130694	65.51	0.373502
7	130896	65.61	0.57588
7	131096	65.71	0.741899
7	131300	65.81	0.878093
7	131508	65.91	0.98982
7	131717	66.01	1.08147
7	131921	66.11	1.15666
7	132131	66.21	1.21834
7	132329	66.31	1.26894
7	132531	66.41	1.31045
7	132731	66.51	1.34451
7	132931	66.61	1.37244
7	133135	66.71	1.39536
7	133337	66.81	1.41416
7	133539	66.91	1.42958
7	133742	67.01	1.44223
7	133944	67.11	1.45261
7	134148	67.21	1.46112
7	134346	67.31	1.45658
7	134546	67.41	1.32081
7	134744	67.51	0.975569
7	134946	67.61	0.530829
7	135148	67.71	0.165987
7	135350	67.81	-0.13331
7	135554	67.91	-0.378838
7	135763	68.01	-0.580257
7	135965	68.11	-0.74549
7	136163	68.21	-0.881039
7	136361	68.31	-0.992237
7	136565	68.41	-1.08346
7	136765	68.51	-1.15829
7	136965	68.61	-1.21968
7	137165	68.71	-1.27004
7	137369	68.81	-1.31135
7	137567	68.91	-1.34524
7	137782	69.01	-1.37305
7	137986	69.11	-1.39585
7	138184	69.21	-1.41456
7	138386	69.31	-1.42991
7	138592	69.41	-1.4425
7	138798	69.51	-1.45283
7	139002	69.61	-1.46131
7	139204	69.71	-1.46826
7	139416	69.81	-1.47396
7	139618	69.91	-1.46165
7	139821	70.01	-1.27459
7	140023	70.11	-0.890728
7	140227	70.21	-0.46123
7	140433	70.31	-0.108891
7	140637	70.41	0.180149
7	140835	70.51	0.417262
7	141035	70.61	0.611778
7	141235	70.71	0.771349
7	141433	70.81	0.902252
7	141637	70.91	1.00964
7	141842	71.01	1.09773
7	142040	71.11	1.17
7	142240	71.21	1.22929
7	142440	71.31	1.27792
7	142642	71.41	1.31782
7	142842	71.51	1.35055
7	143050	71.61	1.3774
7	143250	71.71	1.39942
7	143464	71.81	1.41749
7	143668	71.91	1.43231
7	143873	72.01	1.44447
7	144073	72.11	1.45445
7	144269	72.21	1.46263
7	144471	72.31	1.46259
7	144673	72.41	1.36927
7	144877	72.51	1.05339
7	145075	72.61	0.59467
7	145283	72.71	0.218359
7	145485	72.81	-0.090347
7	145689	72.91	-0.343594
7	145898	73.01	-0.551344
7	146102	73.11	-0.721772
7	146302	73.21	-0.861582
7	146504	73.31	-0.976275
7	146702	73.41	-1.07036
7	146910	73.51	-1.14755
7	147108	73.61	-1.21087
7	147308	73.71	-1.26281
7	147514	73.81	-1.30542
7	147716	73.91	-1.34038
7	147917	74.01	-1.36905
7	148119	74.11	-1.39258
7	148319	74.21	-1.41188
7	148521	74.31	-1.42771
7	148723	74.41	-1.4407
7	148923	74.51	-1.45135
7	149123	74.61	-1.46009
7	149325	74.71	-1.46726
7	149535	74.81	-1.47314
7	149739	74.91	-1.45715
7	149946	75.01	-1.23602
7	150148	75.11	-0.828578
7	150348	75.21	-0.410245
7	150546	75.31	-0.0670659
7	150748	75.41	0.21446
7	150946	75.51	0.44541
7	151156	75.61	0.634869
7	151356	75.71	0.790291
7	151562	75.81	0.917791
7	151760	75.91	1.02239
7	151969	76.01	1.10819
7	152171	76.11	1.17858
7	152371	76.21	1.23632
7	152575	76.31	1.28369
7	152775	76.41	1.32255
7	152977	76.51	1.35443
7	153181	76.61	1.38058
7	153385	76.71	1.40204
7	153589	76.81	1.41964
7	153789	76.91	1.43407
7	153994	77.01	1.44592
7	154192	77.11	1.45563
7	154390	77.21	1.4636
7	154596	77.31	1.46646
7	154794	77.41	1.40044
7	154998	77.51	1.10584
7	155198	77.61	0.649194
7	155402	77.71	0.263087
7	155602	77.81	-0.0536542
7	155806	77.91	-0.313493
7	156017	78.01	-0.526651
7	156221	78.11	-0.701515
7	156421	78.21	-0.844964
7	156619	78.31	-0.962642
7	156819	78.41	-1.05918
7	157021	78.51	-1.13837
7	157221	78.61	-1.20334
7	157423	78.71	-1.25664
7	157623	78.81	-1.30036
7	157827	78.91	-1.33622
7	158032	79.01	-1.36565
7	158232	79.11	-1.38978
7	158434	79.21	-1.40958
7	158636	79.31	-1.42583
7	158842	79.41	-1.43915
7	159042	79.51	-1.45008
7	159246	79.61	-1.45905
7	159444	79.71	-1.46641
7	159648	79.81	-1.47244
7	159850	79.91	-1.45427
7	160059	80.01	-1.2126
7	160263	80.11	-0.790951
7	160463	80.21	-0.379378
7	160667	80.31	-0.0417442
7	160865	80.41	0.235233
7	161069	80.51	0.46245
7	161273	80.61	0.648848
7	161477	80.71	0.801759
7	161679	80.81	0.927199
7	161879	80.91	1.0301
7	162082	81.01	1.11452
7	162280	81.11	1.18377
7	162482	81.21	1.24058
7	162682	81.31	1.28719
7	162884	81.41	1.32542
7	163084	81.51	1.35678
7	163288	81.61	1.38251
7	163488	81.71	1.40362
7	163684	81.81	1.42093
7	163884	81.91	1.43514
7	164097	82.01	1.44679
7	164307	82.11	1.45635
7	164509	82.21	1.46419
7	164707	82.31	1.4688
7	164905	82.41	1.41925
7	165107	82.51	1.13782
7	165307	82.61	0.689693
7	165511	82.71	0.296311
7	165715	82.81	-0.0263994
7	165915	82.91	-0.291134
7	166128	83.01	-0.508309
7	166330	83.11	-0.686468
7	166534	83.21	-0.83262
7	166734	83.31	-0.952516
7	166938	83.41	-1.05087
7	167138	83.51	-1.13156
7	167346	83.61	-1.19775
7	167554	83.71	-1.25205
7	167758	83.81	-1.29659
7	167958	83.91	-1.33314
7	168161	84.01	-1.36311
7	168361	84.11	-1.38771
7	168561	84.21	-1.40788
7	168761	84.31	-1.42443
7	168961	84.41	-1.43801
7	169161	84.51	-1.44914
7	169363	84.61	-1.45828
7	169563	84.71	-1.46577
7	169765	84.81	-1.47192
7	169969	84.91	-1.45153
7	170180	85.01	-1.19842
7	170380	85.11	-0.768896
7	170582	85.21	-0.361285
7	170782	85.31	-0.0269018
7	170982	85.41	0.247409
7	171180	85.51	0.472439
7	171382	85.61	0.657042
7	171586	85.71	0.808481
7	171788	85.81	0.932713
7	171992	85.91	1.03463
7	172201	86.01	1.11823
7	172403	86.11	1.18682
7	172607	86.21	1.24308
7	172803	86.31	1.28924
7	173003	86.41	1.3271
7	173205	86.51	1.35816
7	173405	86.61	1.38364
7	173615	86.71	1.40455
7	173819	86.81	1.4217
7	174023	86.91	1.43576
7	174232	87.01	1.4473
7	174432	87.11	1.45677
7	174630	87.21	1.46454
7	174834	87.31	1.47012
7	175030	87.41	1.42982
7	175228	87.51	1.15579
7	175426	87.61	0.712447
7	175628	87.71	0.314977
7	175826	87.81	-0.0110868
7	176026	87.91	-0.278573
7	176233	88.01	-0.498004
7	176439	88.11	-0.678014
7	176639	88.21	-0.825685
7	176841	88.31	-0.946827
7	177047	88.41	-1.04621
7	177243	88.51	-1.12773
7	177449	88.61	-1.19461
7	177651	88.71	-1.24947
7	177853	88.81	-1.29448
7	178051	88.91	-1.3314
7	178258	89.01	-1.36169
7	178458	89.11	-1.38654
7	178656	89.21	-1.40692
7	178862	89.31	-1.42364
7	179062	89.41	-1.43736
7	179264	89.51	-1.44861
7	179464	89.61	-1.45785
7	179666	89.71	-1.46542
7	179868	89.81	-1.47163
7	180068	89.91	-1.44779
7	180277	90.01	-1.18868
7	180487	90.11	-0.755104
7	180687	90.21	-0.349971
7	180899	90.31	-0.0176207
7	181095	90.41	0.255022
7	181295	90.51	0.478685
7	181497	90.61	0.662166
7	181701	90.71	0.812684
7	181903	90.81	0.936162
7	182099	90.91	1.03746
7	182312	91.01	1.12055
7	182510	91.11	1.18872
7	182710	91.21	1.24464
7	182912	91.31	1.29052
7	183110	91.41	1.32815
7	183314	91.51	1.35902
7	183510	91.61	1.38435
7	183710	91.71	1.40513
7	183910	91.81	1.42217
7	184112	91.91	1.43615
7	184319	92.01	1.44762
7	184523	92.11	1.45703
7	184723	92.21	1.46475
7	184925	92.31	1.47086
7	185123	92.41	1.43555
7	185323	92.51	1.16551
7	185527	92.61	0.724751
7	185727	92.71	0.325071
7	185931	92.81	-0.00280644
7	186137	92.91	-0.27178
7	186342	93.01	-0.492432
7	186542	93.11	-0.673443
7	186742	93.21	-0.821935
7	186946	93.31	-0.943751
7	187148	93.41	-1.04368
7	187348	93.51	-1.12566
7	187550	93.61	-1.19291
7	187752	93.71	-1.24808
7	187952	93.81	-1.29334
7	188154	93.91	-1.33047
7	188359	94.01	-1.36092
7	188559	94.11	-1.38591
7	188757	94.21	-1.4064
7	188955	94.31	-1.42322
7	189163	94.41	-1.43701
7	189365	94.51	-1.44833
7	189569	94.61	-1.45761
7	189775	94.71	-1.46523
7	189973	94.81	-1.47147
7	190173	94.91	-1.44508
7	190378	95.01	-1.18287
7	190578	95.11	-0.747231
7	190778	95.21	-0.343512
7	190982	95.31	-0.0123218
7	191184	95.41	0.259369
7	191386	95.51	0.482251
7	191586	95.61	0.665091
7	191788	95.71	0.815084
7	191986	95.81	0.93813
7	192190	95.91	1.03907
7	192395	96.01	1.12188
7	192597	96.11	1.18981
7	192793	96.21	1.24553
7	192999	96.31	1.29125
7	193203	96.41	1.32875
7	193403	96.51	1.35952
7	193607	96.61	1.38476
7	193811	96.71	1.40546
7	194007	96.81	1.42244
7	194209	96.91	1.43638
7	194414	97.01	1.44781
7	194618	97.11	1.45718
7	194820	97.21	1.46488
7	195022	97.31	1.47119
7	195226	97.41	1.43852
7	195432	97.51	1.1706
7	195630	97.61	0.731207
7	195834	97.71	0.330367
7	196044	97.81	0.00153841
7	196244	97.91	-0.268216
7	196459	98.01	-0.489508
7	196659	98.11	-0.671044
7	196865	98.21	-0.819968
7	197063	98.31	-0.942137
7	197265	98.41	-1.04236
7	197465	98.51	-1.12457
7	197669	98.61	-1.19202
7	197877	98.71	-1.24735
7	198081	98.81	-1.29274
7	198289	98.91	-1.32997
7	198492	99.01	-1.36052
7	198696	99.11	-1.38558
7	198896	99.21	-1.40613
7	199096	99.31	-1.423
7	199304	99.41	-1.43683
7	199516	99.51	-1.44818
7	199722	99.61	-1.45749
7	199922	99.71	-1.46513
7	200124	99.81	-1.47139
7	200330	99.91	-1.44345
7	200539	100.01	-1.17964
7	200734	100.11	-0.747561
7	200937	100.21	-0.379701
7	201140	100.31	-0.0711165
7	201341	100.41	0.183306
7	201540	100.51	0.388732
7	201743	100.61	0.550282
7	201942	100.71	0.672939
7	202145	100.81	0.761491
7	202344	100.91	0.820476
7	202544	101.01	0.854148
7	202745	101.11	0.866452
7	202946	101.21	0.861004
7	203147	101.31	0.841092
7	203350	101.41	0.809672
7	203557	101.51	0.769374
7	203756	101.61	0.722517
7	203953	101.71	0.671118
7	204152	101.81	0.616917
7	204355	101.91	0.561387
7	204557	102.01	0.505765
7	204756	102.11	0.451064
7	204959	102.21	0.3981
7	205160	102.31	0.347511
7	205363	102.41	0.299777
7	205562	102.51	0.255242
7	205761	102.61	0.21413
7	205956	102.71	0.176563
7	206151	102.81	0.142578
7	206350	102.91	0.112141
7	206554	103.01	0.0851615
7	206755	103.11	0.0615011
7	206958	103.21	0.0409882
7	207155	103.31	0.0234254
7	207356	103.41	0.00859754
7	207557	103.51	-0.00372063
7	207762	103.61	-0.0137591
7	207967	103.71	-0.0217473
7	208170	103.81	-0.0279104
7	208367	103.91	-0.0324657
7	208577	104.01	-0.0356203
7	208774	104.11	-0.0375693
7	208969	104.21	-0.0384944
7	209172	104.31	-0.0385628
7	209371	104.41	-0.0379272
7	209570	104.51	-0.0367256
7	209769	104.61	-0.0350812
7	209972	104.71	-0.0331029
7	210179	104.81	-0.0308864
7	210380	104.91	-0.028514
7	210588	105.01	-0.0260565
7	210789	105.11	-0.0235731
7	210986	105.21	-0.021113
7	211185	105.31	-0.0187162
7	211394	105.41	-0.0164143
7	211593	105.51	-0.0142316
7	211802	105.61	-0.0121857
7	212001	105.71	-0.0102888
7	212198	105.81	-0.00854817
7	212395	105.91	-0.00696691
7	212597	106.01	-0.00554477
7	212800	106.11	-0.00427866
7	213005	106.21	-0.00316328
7	213212	106.31	-0.00219154
7	213411	106.41	-0.00135507
7	213612	106.51	-0.000644563
7	213813	106.61	-5.01418e-05
7	214014	106.71	0.00043839
7	214209	106.81	0.000831293
7	214408	106.91	0.0011387
7	214614	107.01	0.00137046
7	214817	107.11	0.001536
7	215012	107.21	0.00164425
7	215207	107.31	0.00170357
7	215412	107.41	0.00172167
7	215609	107.51	0.00170564
7	215814	107.61	0.0016619
7	216017	107.71	0.00159621
7	216226	107.81	0.00151369
7	216425	107.91	0.00141885
7	216627	108.01	0.00131559
7	216828	108.11	0.00120729
7	217023	108.21	0.0010968
7	217228	108.31	0.000986478
7	217429	108.41	0.000878285
7	217632	108.51	0.000773777
7	217833	108.61	0.000674165
7	218028	108.71	0.000580357
7	218225	108.81	0.000492993
7	218426	108.91	0.000412481
7	218636	109.01	0.000339035
7	218833	109.11	0.000272703
7	219030	109.21	0.000213397
7	219229	109.31	0.000160918
7	219428	109.41	0.00011498
7	219625	109.51	7.52329e-05
7	219820	109.61	4.12771e-05
7	220023	109.71	1.26812e-05
7	220226	109.81	-1.10049e-05
7	220427	109.91	-3.02384e-05
7	220627	110.01	-4.54741e-05
7	220830	110.11	-5.71572e-05
7	221029	110.21	-6.57162e-05
7	221230	110.31	-7.15588e-05
7	221437	110.41	-7.50684e-05
7	221638	110.51	-7.6601e-05
7	221845	110.61	-7.64844e-05
7	222048	110.71	-7.5017e-05
7	222253	110.81	-7.24676e-05
7	222452	110.91	-6.90765e-05
7	222660	111.01	-6.50557e-05
7	222861	111.11	-6.05904e-05
7	223058	111.21	-5.58405e-05
7	223259	111.31	-5.09424e-05
7	223462	111.41	-4.60106e-05
7	223659	111.51	-4.11396e-05
7	223854	111.61	-3.64057e-05
7	224057	111.71	-3.18694e-05
7	224256	111.81	-2.75764e-05
7	224451	111.91	-2.356e-05
7	224653	112.01	-1.98426e-05
7	224858	112.11	-1.64372e-05
7	225055	112.21	-1.33487e-05
7	225260	112.31	-1.05757e-05
7	225467	112.41	-8.11112e-06
7	225668	112.51	-5.94386e-06
7	225871	112.61	-4.05934e-06
7	226076	112.71	-2.44057e-06
7	226275	112.81	-1.06884e-06
7	226470	112.91	7.56209e-08
7	226676	113.01	1.01312e-06
7	226881	113.11	1.76403e-06
7	227080	113.21	2.3484e-06
7	227281	113.31	2.78566e-06
7	227482	113.41	3.09441e-06
7	227685	113.51	3.29219e-06
7	227888	113.61	3.39538e-06
7	228089	113.71	3.41914e-06
7	228290	113.81	3.37731e-06
7	228491	113.91	3.28242e-06
7	228701	114.01	3.1457e-06
7	228902	114.11	2.97712e-06
7	229107	114.21	2.78543e-06
7	229310	114.31	2.57822e-06
7	229513	114.41	2.36199e-06
7	229714	114.51	2.14224e-06
7	229915	114.61	1.92355e-06
7	230124	114.71	1.70965e-06
7	230325	114.81	1.50351e-06
7	230522	114.91	1.30744e-06
7	230730	115.01	1.12314e-06
7	230927	115.11	9.51805e-07
7	231132	115.21	7.94181e-07
7	231337	115.31	6.50629e-07
7	231538	115.41	5.21198e-07
7	231745	115.51	4.05671e-07
7	231946	115.61	3.03622e-07
7	232151	115.71	2.14462e-07
7	232352	115.81	1.37472e-07
7	232549	115.91	7.18479e-08
7	232763	116.01	1.67244e-08
7	232968	116.11	-2.87955e-08
7	233171	116.21	-6.56215e-08
7	233376	116.31	-9.4655e-08
7	233581	116.41	-1.16775e-07
7	233782	116.51	-1.32826e-07
7	233983	116.61	-1.43611e-07
7	234184	116.71	-1.49883e-07
7	234385	116.81	-1.5234e-07
7	234582	116.91	-1.51623e-07
7	234792	117.01	-1.48316e-07
7	234995	117.11	-1.42943e-07
7	235198	117.21	-1.35971e-07
7	235399	117.31	-1.27813e-07
7	235598	117.41	-1.18827e-07
7	235797	117.51	-1.09325e-07
7	235996	117.61	-9.95694e-08
7	236197	117.71	-8.97806e-08
7	236396	117.81	-8.014e-08
7	236597	117.91	-7.07935e-08
7	236799	118.01	-6.18563e-08
7	236996	118.11	-5.34154e-08
7	237203	118.21	-4.5533e-08
7	237400	118.31	-3.82503e-08
7	237601	118.41	-3.15897e-08
7	237802	118.51	-2.55589e-08
7	238003	118.61	-2.01531e-08
7	238210	118.71	-1.53577e-08
7	238411	118.81	-1.1147e-08
7	238612	118.91	-7.49374e-09
7	238822	119.01	-4.36238e-09
7	239023	119.11	-1.71525e-09
7	239226	119.21	4.86722e-10
7	239427	119.31	2.28439e-09
7	239626	119.41	3.71863e-09
7	239829	119.51	4.82885e-09
7	240032	119.61	5.65272e-09
7	240233	119.71	6.22755e-09
7	240434	119.81	6.58709e-09
7	240637	119.91	6.7633e-09
6	228	1.11	242.45
6	366	1.21	242.45
6	506	1.31	242.45
6	646	1.41	242.45
6	791	1.51	242.45
6	929	1.61	242.45
6	1067	1.71	242.45
6	1206	1.81	242.45
6	1346	1.91	242.45
6	1492	2.01	242.45
6	1632	2.11	242.45
6	1768	2.21	242.45
6	1912	2.31	242.45
6	2050	2.41	242.45
6	2190	2.51	242.45
6	2332	2.61	242.45
6	2472	2.71	242.45
6	2610	2.81	242.45
6	2752	2.91	242.45
6	2895	3.01	242.45
6	3060	3.11	242.45
6	3259	3.21	242.45
6	3458	3.31	242.45
6	3657	3.41	242.45
6	3860	3.51	242.45
6	4057	3.61	242.45
6	4254	3.71	242.45
6	4456	3.81	242.45
6	4663	3.91	242.45
6	4869	4.01	242.45
6	5070	4.11	242.45
6	5275	4.21	242.45
6	5478	4.31	242.45
6	5681	4.41	242.45
6	5882	4.51	242.45
6	6079	4.61	242.45
6	6280	4.71	242.45
6	6479	4.81	242.45
6	6680	4.91	242.45
6	6886	5.01	242.45
6	7085	5.11	242.45
6	7284	5.21	242.45
6	7487	5.31	242.45
6	7684	5.41	242.45
6	7887	5.51	242.45
6	8092	5.61	242.45
6	8291	5.71	242.45
6	8490	5.81	242.45
6	8689	5.91	242.45
6	8891	6.01	242.45
6	9088	6.11	242.45
6	9289	6.21	242.45
6	9492	6.31	242.45
6	9699	6.41	242.45
6	9902	6.51	242.45
6	10107	6.61	242.45
6	10310	6.71	242.45
6	10513	6.81	242.45
6	10718	6.91	242.45
6	10922	7.01	242.45
6	11125	7.11	242.45
6	11328	7.21	242.45
6	11525	7.31	242.45
6	11726	7.41	242.45
6	11929	7.51	242.45
6	12128	7.61	242.45
6	12325	7.71	242.45
6	12522	7.81	242.45
6	12719	7.91	242.45
6	12923	8.01	242.45
6	13122	8.11	242.45
6	13329	8.21	242.45
6	13528	8.31	242.45
6	13729	8.41	242.45
6	13928	8.51	242.45
6	14131	8.61	242.45
6	14334	8.71	242.45
6	14531	8.81	242.45
6	14732	8.91	242.45
6	14936	9.01	242.45
6	15139	9.11	242.45
6	15342	9.21	242.45
6	15549	9.31	242.45
6	15752	9.41	242.45
6	15955	9.51	242.45
6	16152	9.61	242.45
6	16355	9.71	242.45
6	16552	9.81	242.45
6	16757	9.91	242.45
6	16963	10.01	242.45
6	17160	10.11	242.45
6	17355	10.21	242.45
6	17556	10.31	242.45
6	17755	10.41	242.45
6	17958	10.51	242.45
6	18159	10.61	242.45
6	18358	10.71	242.45
6	18557	10.81	242.45
6	18762	10.91	242.45
6	18970	11.01	242.45
6	19165	11.11	242.45
6	19368	11.21	242.45
6	19567	11.31	242.45
6	19764	11.41	242.45
6	19969	11.51	242.45
6	20172	11.61	242.45
6	20373	11.71	242.45
6	20572	11.81	242.45
6	20775	11.91	242.45
6	20979	12.01	242.45
6	21176	12.11	242.45
6	21379	12.21	242.45
6	21582	12.31	242.45
6	21791	12.41	242.45
6	21986	12.51	242.45
6	22189	12.61	242.45
6	22388	12.71	242.45
6	22589	12.81	242.45
6	22788	12.91	242.45
6	22997	13.01	242.45
6	24978	13.11	242.45
6	25179	13.21	242.45
6	25380	13.31	242.45
6	25581	13.41	242.45
6	25780	13.51	242.45
6	25979	13.61	242.45
6	26180	13.71	242.45
6	26381	13.81	242.45
6	26582	13.91	242.45
6	26784	14.01	242.45
6	26989	14.11	242.45
6	27188	14.21	242.45
6	27387	14.31	242.45
6	27584	14.41	242.45
6	27789	14.51	242.45
6	27992	14.61	242.45
6	28193	14.71	242.45
6	28400	14.81	242.45
6	28599	14.91	242.45
6	28813	15.01	242.45
6	29016	15.11	242.45
6	29221	15.21	242.45
6	29426	15.31	242.45
6	29627	15.41	242.45
6	29830	15.51	242.45
6	30025	15.61	242.45
6	30232	15.71	242.45
6	30437	15.81	242.45
6	30642	15.91	242.45
6	30852	16.01	242.45
6	31051	16.11	242.45
6	31250	16.21	242.45
6	31455	16.31	242.45
6	31658	16.41	242.45
6	31857	16.51	242.45
6	32056	16.61	242.45
6	32263	16.71	242.45
6	32466	16.81	242.45
6	32669	16.91	242.45
6	32875	17.01	242.45
6	33076	17.11	242.45
6	33277	17.21	242.45
6	33478	17.31	242.45
6	33683	17.41	242.45
6	33886	17.51	242.45
6	34085	17.61	242.45
6	34286	17.71	242.45
6	34495	17.81	242.45
6	34702	17.91	242.45
6	34908	18.01	242.45
6	35115	18.11	242.45
6	35322	18.21	242.45
6	35527	18.31	242.45
6	35722	18.41	242.45
6	35919	18.51	242.45
6	36122	18.61	242.45
6	36329	18.71	242.45
6	36532	18.81	242.45
6	36737	18.91	242.45
6	36939	19.01	242.45
6	37142	19.11	242.45
6	37341	19.21	242.45
6	37538	19.31	242.45
6	37737	19.41	242.45
6	37934	19.51	242.45
6	38133	19.61	242.45
6	38340	19.71	242.45
6	38543	19.81	242.45
6	38742	19.91	242.45
6	38944	20.01	242.45
6	39151	20.11	242.45
6	39352	20.21	242.45
6	39549	20.31	242.45
6	39744	20.41	242.45
6	39947	20.51	242.45
6	40146	20.61	242.45
6	40351	20.71	242.45
6	40552	20.81	242.45
6	40755	20.91	242.45
6	40961	21.01	242.45
6	41166	21.11	242.45
6	41365	21.21	242.45
6	41564	21.31	242.45
6	41771	21.41	242.45
6	41974	21.51	242.45
6	42169	21.61	242.45
6	42368	21.71	242.45
6	42569	21.81	242.45
6	42774	21.91	242.45
6	42986	22.01	242.45
6	43189	22.11	242.45
6	43390	22.21	242.45
6	43587	22.31	242.45
6	43786	22.41	242.45
6	43987	22.51	242.45
6	44184	22.61	242.45
6	44385	22.71	242.45
6	44582	22.81	242.45
6	44785	22.91	242.45
6	44989	23.01	242.45
6	45192	23.11	242.45
6	45391	23.21	242.45
6	45590	23.31	242.45
6	45787	23.41	242.45
6	45986	23.51	242.45
6	46189	23.61	242.45
6	46396	23.71	242.45
6	46601	23.81	242.45
6	46800	23.91	242.45
6	47010	24.01	242.45
6	47207	24.11	242.45
6	47416	24.21	242.45
6	47621	24.31	242.45
6	47822	24.41	242.45
6	48025	24.51	242.45
6	48226	24.61	242.45
6	48425	24.71	242.45
6	48626	24.81	242.45
6	48829	24.91	242.45
6	49035	25.01	242.45
6	49232	25.11	242.45
6	49437	25.21	242.45
6	49634	25.31	242.45
6	49839	25.41	242.45
6	50040	25.51	242.45
6	50235	25.61	242.45
6	50434	25.71	242.45
6	50633	25.81	242.45
6	50832	25.91	242.45
6	51034	26.01	242.45
6	51237	26.11	242.45
6	51442	26.21	242.45
6	51643	26.31	242.45
6	51848	26.41	242.45
6	52049	26.51	242.45
6	52254	26.61	242.45
6	52451	26.71	242.45
6	52650	26.81	242.45
6	52851	26.91	242.45
6	53055	27.01	242.45
6	53258	27.11	242.45
6	53459	27.21	242.45
6	53658	27.31	242.45
6	53859	27.41	242.45
6	54064	27.51	242.45
6	54263	27.61	242.45
6	54464	27.71	242.45
6	54673	27.81	242.45
6	54874	27.91	242.45
6	55076	28.01	242.45
6	55279	28.11	242.45
6	55482	28.21	242.45
6	55683	28.31	242.45
6	55884	28.41	242.45
6	56089	28.51	242.45
6	56286	28.61	242.45
6	56489	28.71	242.45
6	56694	28.81	242.45
6	56899	28.91	242.45
6	57105	29.01	242.45
6	57310	29.11	242.45
6	57507	29.21	242.45
6	57706	29.31	242.45
6	57909	29.41	242.45
6	58110	29.51	242.45
6	58309	29.61	242.45
6	58508	29.71	242.45
6	58709	29.81	242.45
6	58906	29.91	242.45
6	59116	30.01	242.45
6	59317	30.11	242.45
6	59522	30.21	242.45
6	59721	30.31	242.45
6	59916	30.41	242.45
6	60111	30.51	242.45
6	60312	30.61	242.45
6	60511	30.71	242.45
6	60714	30.81	242.45
6	60919	30.91	242.45
6	61123	31.01	242.45
6	61326	31.11	242.45
6	61537	31.21	242.45
6	61740	31.31	242.45
6	61939	31.41	242.45
6	62140	31.51	242.45
6	62341	31.61	242.45
6	62542	31.71	242.45
6	62741	31.81	242.45
6	62938	31.91	242.45
6	63148	32.01	242.45
6	63349	32.11	242.45
6	63556	32.21	242.45
6	63759	32.31	242.45
6	63962	32.41	242.45
6	64161	32.51	242.45
6	64360	32.61	242.45
6	64555	32.71	242.45
6	64760	32.81	242.45
6	64959	32.91	242.45
6	65167	33.01	242.45
6	65368	33.11	242.45
6	65565	33.21	242.45
6	65766	33.31	242.45
6	65969	33.41	242.45
6	66176	33.51	242.45
6	66377	33.61	242.45
6	66576	33.71	242.45
6	66773	33.81	242.45
6	66974	33.91	242.45
6	67174	34.01	242.45
6	67375	34.11	242.45
6	67574	34.21	242.45
6	67775	34.31	242.45
6	67980	34.41	242.45
6	68179	34.51	242.45
6	68378	34.61	242.45
6	68577	34.71	242.45
6	68778	34.81	242.45
6	68975	34.91	242.45
6	69183	35.01	242.45
6	69384	35.11	242.45
6	69583	35.21	242.45
6	69778	35.31	242.45
6	69977	35.41	242.45
6	70176	35.51	242.45
6	70381	35.61	242.45
6	70580	35.71	242.45
6	70777	35.81	242.45
6	70980	35.91	242.45
6	71184	36.01	242.45
6	71385	36.11	242.45
6	71592	36.21	242.45
6	71795	36.31	242.45
6	71992	36.41	242.45
6	72189	36.51	242.45
6	72390	36.61	242.45
6	72591	36.71	242.45
6	72792	36.81	242.45
6	72987	36.91	242.45
6	73195	37.01	242.45
6	73396	37.11	242.45
6	73599	37.21	242.45
6	73798	37.31	242.45
6	73999	37.41	242.45
6	74196	37.51	242.45
6	74391	37.61	242.45
6	74590	37.71	242.45
6	74791	37.81	242.45
6	74992	37.91	242.45
6	75194	38.01	242.45
6	75399	38.11	242.45
6	75600	38.21	242.45
6	75803	38.31	242.45
6	76000	38.41	242.45
6	76199	38.51	242.45
6	76402	38.61	242.45
6	76599	38.71	242.45
6	76800	38.81	242.45
6	77001	38.91	242.45
6	77209	39.01	242.45
6	77406	39.11	242.45
6	77609	39.21	242.45
6	77812	39.31	242.45
6	78007	39.41	242.45
6	78208	39.51	242.45
6	78413	39.61	242.45
6	78610	39.71	242.45
6	78809	39.81	242.45
6	79006	39.91	242.45
6	79210	40.01	242.45
6	79411	40.11	242.45
6	79610	40.21	242.45
6	79809	40.31	242.45
6	80010	40.41	242.45
6	80211	40.51	242.45
6	80408	40.61	242.45
6	80611	40.71	242.45
6	80816	40.81	242.45
6	81017	40.91	242.45
6	81219	41.01	242.45
6	81414	41.11	242.45
6	81617	41.21	242.45
6	81820	41.31	242.45
6	82025	41.41	242.45
6	82228	41.51	242.45
6	82427	41.61	242.45
6	82634	41.71	242.45
6	82837	41.81	242.45
6	83038	41.91	242.45
6	83242	42.01	242.45
6	83441	42.11	242.45
6	83640	42.21	242.45
6	83839	42.31	242.45
6	84038	42.41	242.45
6	84239	42.51	242.45
6	84440	42.61	242.45
6	84639	42.71	242.45
6	84842	42.81	242.45
6	85047	42.91	242.45
6	85253	43.01	242.45
6	85454	43.11	242.45
6	85651	43.21	242.45
6	85848	43.31	242.45
6	86055	43.41	242.45
6	86258	43.51	242.45
6	86455	43.61	242.45
6	86654	43.71	242.45
6	86851	43.81	242.45
6	87048	43.91	242.45
6	87256	44.01	242.45
6	87453	44.11	242.45
6	87650	44.21	242.45
6	87847	44.31	242.45
6	88050	44.41	242.45
6	88253	44.51	242.45
6	88454	44.61	242.45
6	88657	44.71	242.45
6	88858	44.81	242.45
6	89055	44.91	242.45
6	89263	45.01	242.45
6	89458	45.11	242.45
6	89657	45.21	242.45
6	89858	45.31	242.45
6	90063	45.41	242.45
6	90258	45.51	242.45
6	90465	45.61	242.45
6	90664	45.71	242.45
6	90861	45.81	242.45
6	91064	45.91	242.45
6	91270	46.01	242.45
6	91479	46.11	242.45
6	91682	46.21	242.45
6	91887	46.31	242.45
6	92090	46.41	242.45
6	92289	46.51	242.45
6	92490	46.61	242.45
6	92689	46.71	242.45
6	92896	46.81	242.45
6	93095	46.91	242.45
6	93305	47.01	242.45
6	93508	47.11	242.45
6	93717	47.21	242.45
6	93924	47.31	242.45
6	94123	47.41	242.45
6	94326	47.51	242.45
6	94531	47.61	242.45
6	94738	47.71	242.45
6	94941	47.81	242.45
6	95148	47.91	242.45
6	95352	48.01	242.45
6	95559	48.11	242.45
6	95756	48.21	242.45
6	95959	48.31	242.45
6	96158	48.41	242.45
6	96363	48.51	242.45
6	96562	48.61	242.45
6	96767	48.71	242.45
6	96968	48.81	242.45
6	97167	48.91	242.45
6	97371	49.01	242.45
6	97568	49.11	242.45
6	97771	49.21	242.45
6	97978	49.31	242.45
6	98177	49.41	242.45
6	98372	49.51	242.45
6	98569	49.61	242.45
6	98770	49.71	242.45
6	98973	49.81	242.45
6	99172	49.91	242.45
6	99378	50.01	242.45
6	99583	50.11	242.45
6	99784	50.21	242.45
6	99985	50.31	242.45
6	100186	50.41	242.45
6	100395	50.51	242.45
6	100598	50.61	242.45
6	100799	50.71	242.45
6	101000	50.81	242.45
6	101197	50.91	242.45
6	101403	51.01	242.45
6	101600	51.11	242.45
6	101797	51.21	242.45
6	102000	51.31	242.45
6	102209	51.41	242.45
6	102408	51.51	242.45
6	102613	51.61	242.45
6	102816	51.71	242.45
6	103011	51.81	242.45
6	103220	51.91	242.45
6	103424	52.01	242.45
6	103625	52.11	242.45
6	103822	52.21	242.45
6	104021	52.31	242.45
6	104224	52.41	242.45
6	104425	52.51	242.45
6	104628	52.61	242.45
6	104831	52.71	242.45
6	105030	52.81	242.45
6	105229	52.91	242.45
6	105437	53.01	242.45
6	105634	53.11	242.45
6	105841	53.21	242.45
6	106044	53.31	242.45
6	106239	53.41	242.45
6	106440	53.51	242.45
6	106637	53.61	242.45
6	106836	53.71	242.45
6	107033	53.81	242.45
6	107234	53.91	242.45
6	107438	54.01	242.45
6	107635	54.11	242.45
6	107834	54.21	242.45
6	108035	54.31	242.45
6	108236	54.41	242.45
6	108437	54.51	242.45
6	108638	54.61	242.45
6	108837	54.71	242.45
6	109032	54.81	242.45
6	109231	54.91	242.45
6	109438	55.01	242.45
6	109638	55.11	242.45
6	109836	55.21	242.45
6	110034	55.31	242.45
6	110236	55.41	242.45
6	110436	55.51	242.45
6	110640	55.61	242.45
6	110846	55.71	242.45
6	111048	55.81	242.45
6	111248	55.91	242.45
6	111451	56.01	242.45
6	111663	56.11	242.45
6	111867	56.21	242.45
6	112073	56.31	242.45
6	112275	56.41	242.45
6	112475	56.51	242.45
6	112683	56.61	242.45
6	112883	56.71	242.45
6	113087	56.81	242.45
6	113285	56.91	242.45
6	113490	57.01	242.45
6	113692	57.11	242.45
6	113892	57.21	242.45
6	114092	57.31	242.45
6	114292	57.41	242.45
6	114494	57.51	242.45
6	114700	57.61	242.45
6	114906	57.71	242.45
6	115110	57.81	242.45
6	115308	57.91	242.45
6	115513	58.01	242.45
6	115723	58.11	242.45
6	115921	58.21	242.45
6	116125	58.31	242.45
6	116327	58.41	242.45
6	116531	58.51	242.45
6	116731	58.61	242.45
6	116933	58.71	242.45
6	117139	58.81	242.45
6	117341	58.91	242.45
6	117546	59.01	242.45
6	117750	59.11	242.45
6	117950	59.21	242.45
6	118154	59.31	242.45
6	118358	59.41	242.45
6	118562	59.51	242.45
6	118774	59.61	242.45
6	118978	59.71	242.45
6	119180	59.81	242.45
6	119380	59.91	242.45
6	119585	60.01	242.45
6	119781	60.11	242.45
6	119985	60.21	242.45
6	120187	60.31	242.45
6	120387	60.41	242.45
6	120585	60.51	242.45
6	120787	60.61	242.45
6	120993	60.71	242.45
6	121195	60.81	242.45
6	121395	60.91	242.45
6	121604	61.01	242.45
6	121802	61.11	242.45
6	122008	61.21	242.45
6	122208	61.31	242.45
6	122410	61.41	242.45
6	122614	61.51	242.45
6	122814	61.61	242.45
6	123016	61.71	242.45
6	123226	61.81	242.45
6	123430	61.91	242.45
6	123641	62.01	242.45
6	123837	62.11	242.45
6	124033	62.21	242.45
6	124233	62.31	242.45
6	124431	62.41	242.45
6	124641	62.51	242.45
6	124841	62.61	242.45
6	125045	62.71	242.45
6	125247	62.81	242.45
6	125457	62.91	242.45
6	125664	63.01	242.45
6	125864	63.11	242.45
6	126064	63.21	242.45
6	126262	63.31	242.45
6	126460	63.41	242.45
6	126660	63.51	242.45
6	126856	63.61	242.45
6	127060	63.71	242.45
6	127260	63.81	242.45
6	127460	63.91	242.45
6	127673	64.01	242.45
6	127873	64.11	242.45
6	128069	64.21	242.45
6	128269	64.31	242.45
6	128467	64.41	242.45
6	128663	64.51	242.45
6	128867	64.61	242.45
6	129067	64.71	242.45
6	129271	64.81	242.45
6	129473	64.91	242.45
6	129682	65.01	242.45
6	129880	65.11	242.45
6	130086	65.21	242.45
6	130292	65.31	242.45
6	130492	65.41	242.45
6	130694	65.51	242.45
6	130896	65.61	242.45
6	131096	65.71	242.45
6	131300	65.81	242.45
6	131508	65.91	242.45
6	131717	66.01	242.45
6	131921	66.11	242.45
6	132131	66.21	242.45
6	132329	66.31	242.45
6	132531	66.41	242.45
6	132731	66.51	242.45
6	132931	66.61	242.45
6	133135	66.71	242.45
6	133337	66.81	242.45
6	133539	66.91	242.45
6	133742	67.01	242.45
6	133944	67.11	242.45
6	134148	67.21	242.45
6	134346	67.31	242.45
6	134546	67.41	242.45
6	134744	67.51	242.45
6	134946	67.61	242.45
6	135148	67.71	242.45
6	135350	67.81	242.45
6	135554	67.91	242.45
6	135763	68.01	242.45
6	135965	68.11	242.45
6	136163	68.21	242.45
6	136361	68.31	242.45
6	136565	68.41	242.45
6	136765	68.51	242.45
6	136965	68.61	242.45
6	137165	68.71	242.45
6	137369	68.81	242.45
6	137567	68.91	242.45
6	137782	69.01	242.45
6	137986	69.11	242.45
6	138184	69.21	242.45
6	138386	69.31	242.45
6	138592	69.41	242.45
6	138798	69.51	242.45
6	139002	69.61	242.45
6	139204	69.71	242.45
6	139416	69.81	242.45
6	139618	69.91	242.45
6	139821	70.01	242.45
6	140023	70.11	242.45
6	140227	70.21	242.45
6	140433	70.31	242.45
6	140637	70.41	242.45
6	140835	70.51	242.45
6	141035	70.61	242.45
6	141235	70.71	242.45
6	141433	70.81	242.45
6	141637	70.91	242.45
6	141842	71.01	242.45
6	142040	71.11	242.45
6	142240	71.21	242.45
6	142440	71.31	242.45
6	142642	71.41	242.45
6	142842	71.51	242.45
6	143050	71.61	242.45
6	143250	71.71	242.45
6	143464	71.81	242.45
6	143668	71.91	242.45
6	143873	72.01	242.45
6	144073	72.11	242.45
6	144269	72.21	242.45
6	144471	72.31	242.45
6	144673	72.41	242.45
6	144877	72.51	242.45
6	145075	72.61	242.45
6	145283	72.71	242.45
6	145485	72.81	242.45
6	145689	72.91	242.45
6	145898	73.01	242.45
6	146102	73.11	242.45
6	146302	73.21	242.45
6	146504	73.31	242.45
6	146702	73.41	242.45
6	146910	73.51	242.45
6	147108	73.61	242.45
6	147308	73.71	242.45
6	147514	73.81	242.45
6	147716	73.91	242.45
6	147917	74.01	242.45
6	148119	74.11	242.45
6	148319	74.21	242.45
6	148521	74.31	242.45
6	148723	74.41	242.45
6	148923	74.51	242.45
6	149123	74.61	242.45
6	149325	74.71	242.45
6	149535	74.81	242.45
6	149739	74.91	242.45
6	149946	75.01	242.45
6	150148	75.11	242.45
6	150348	75.21	242.45
6	150546	75.31	242.45
6	150748	75.41	242.45
6	150946	75.51	242.45
6	151156	75.61	242.45
6	151356	75.71	242.45
6	151562	75.81	242.45
6	151760	75.91	242.45
6	151969	76.01	242.45
6	152171	76.11	242.45
6	152371	76.21	242.45
6	152575	76.31	242.45
6	152775	76.41	242.45
6	152977	76.51	242.45
6	153181	76.61	242.45
6	153385	76.71	242.45
6	153589	76.81	242.45
6	153789	76.91	242.45
6	153994	77.01	242.45
6	154192	77.11	242.45
6	154390	77.21	242.45
6	154596	77.31	242.45
6	154794	77.41	242.45
6	154998	77.51	242.45
6	155198	77.61	242.45
6	155402	77.71	242.45
6	155602	77.81	242.45
6	155806	77.91	242.45
[...]
95	87654	44.21	4
95	87851	44.31	4
95	88054	44.41	4
95	88257	44.51	4
95	88458	44.61	4
95	88661	44.71	4
95	88862	44.81	4
95	89059	44.91	4
95	89267	45.01	4
95	89462	45.11	4
95	89661	45.21	4
95	89862	45.31	4
95	90067	45.41	4
95	90262	45.51	4
95	90469	45.61	4
95	90668	45.71	4
95	90865	45.81	4
95	91068	45.91	4
95	91274	46.01	4
95	91483	46.11	4
95	91686	46.21	4
95	91891	46.31	4
95	92094	46.41	4
95	92293	46.51	4
95	92494	46.61	4
95	92693	46.71	4
95	92900	46.81	4
95	93099	46.91	4
95	93309	47.01	4
95	93512	47.11	4
95	93721	47.21	4
95	93928	47.31	4
95	94127	47.41	4
95	94330	47.51	4
95	94535	47.61	4
95	94742	47.71	4
95	94945	47.81	4
95	95152	47.91	4
95	95356	48.01	4
95	95563	48.11	4
95	95760	48.21	4
95	95963	48.31	4
95	96162	48.41	4
95	96367	48.51	4
95	96566	48.61	4
95	96771	48.71	4
95	96972	48.81	4
95	97171	48.91	4
95	97375	49.01	4
95	97572	49.11	4
95	97775	49.21	4
95	97982	49.31	4
95	98181	49.41	4
95	98376	49.51	4
95	98573	49.61	4
95	98774	49.71	4
95	98977	49.81	4
95	99176	49.91	4
95	99382	50.01	4
95	99587	50.11	4
95	99788	50.21	4
95	99989	50.31	4
95	100190	50.41	4
95	100399	50.51	4
95	100602	50.61	4
95	100803	50.71	4
95	101004	50.81	4
95	101201	50.91	4
95	101407	51.01	4
95	101604	51.11	4
95	101801	51.21	4
95	102004	51.31	4
95	102213	51.41	4
95	102412	51.51	4
95	102617	51.61	4
95	102820	51.71	4
95	103015	51.81	4
95	103224	51.91	4
95	103428	52.01	4
95	103629	52.11	4
95	103826	52.21	4
95	104025	52.31	4
95	104228	52.41	4
95	104429	52.51	4
95	104632	52.61	4
95	104835	52.71	4
95	105034	52.81	4
95	105233	52.91	4
95	105441	53.01	4
95	105638	53.11	4
95	105845	53.21	4
95	106048	53.31	4
95	106243	53.41	4
95	106444	53.51	4
95	106641	53.61	4
95	106840	53.71	4
95	107037	53.81	4
95	107238	53.91	4
95	107442	54.01	4
95	107639	54.11	4
95	107838	54.21	4
95	108039	54.31	4
95	108240	54.41	4
95	108441	54.51	4
95	108642	54.61	4
95	108841	54.71	4
95	109036	54.81	4
95	109235	54.91	4
95	109442	55.01	4
95	109642	55.11	4
95	109840	55.21	4
95	110038	55.31	4
95	110240	55.41	4
95	110440	55.51	4
95	110644	55.61	4
95	110850	55.71	4
95	111052	55.81	4
95	111252	55.91	4
95	111455	56.01	4
95	111667	56.11	4
95	111871	56.21	4
95	112077	56.31	4
95	112279	56.41	4
95	112479	56.51	4
95	112687	56.61	4
95	112887	56.71	4
95	113091	56.81	4
95	113289	56.91	4
95	113494	57.01	4
95	113696	57.11	4
95	113896	57.21	4
95	114096	57.31	4
95	114296	57.41	4
95	114498	57.51	4
95	114704	57.61	4
95	114910	57.71	4
95	115114	57.81	4
95	115312	57.91	4
95	115517	58.01	4
95	115727	58.11	4
95	115925	58.21	4
95	116129	58.31	4
95	116331	58.41	4
95	116535	58.51	4
95	116735	58.61	4
95	116937	58.71	4
95	117143	58.81	4
95	117345	58.91	4
95	117550	59.01	4
95	117754	59.11	4
95	117954	59.21	4
95	118158	59.31	4
95	118362	59.41	4
95	118566	59.51	4
95	118778	59.61	4
95	118982	59.71	4
95	119184	59.81	4
95	119384	59.91	4
95	119589	60.01	4
95	119785	60.11	4
95	119989	60.21	4
95	120191	60.31	4
95	120391	60.41	4
95	120589	60.51	4
95	120791	60.61	4
95	120997	60.71	4
95	121199	60.81	4
95	121399	60.91	4
95	121608	61.01	4
95	121806	61.11	4
95	122012	61.21	4
95	122212	61.31	4
95	122414	61.41	4
95	122618	61.51	4
95	122818	61.61	4
95	123020	61.71	4
95	123230	61.81	4
95	123434	61.91	4
95	123645	62.01	4
95	123841	62.11	4
95	124037	62.21	4
95	124237	62.31	4
95	124435	62.41	4
95	124645	62.51	4
95	124845	62.61	4
95	125049	62.71	4
95	125251	62.81	4
95	125461	62.91	4
95	125668	63.01	4
95	125868	63.11	4
95	126068	63.21	4
95	126266	63.31	4
95	126464	63.41	4
95	126664	63.51	4
95	126860	63.61	4
95	127064	63.71	4
95	127264	63.81	4
95	127464	63.91	4
95	127677	64.01	4
95	127877	64.11	4
95	128073	64.21	4
95	128273	64.31	4
95	128471	64.41	4
95	128667	64.51	4
95	128871	64.61	4
95	129071	64.71	4
95	129275	64.81	4
95	129477	64.91	4
95	129686	65.01	4
95	129884	65.11	4
95	130090	65.21	4
95	130296	65.31	4
95	130496	65.41	4
95	130698	65.51	4
95	130900	65.61	4
95	131100	65.71	4
95	131304	65.81	4
95	131512	65.91	4
95	131721	66.01	4
95	131925	66.11	4
95	132135	66.21	4
95	132333	66.31	4
95	132535	66.41	4
95	132735	66.51	4
95	132935	66.61	4
95	133139	66.71	4
95	133341	66.81	4
95	133543	66.91	4
95	133746	67.01	4
95	133948	67.11	4
95	134152	67.21	4
95	134350	67.31	4
95	134550	67.41	4
95	134748	67.51	4
95	134950	67.61	4
95	135152	67.71	4
95	135354	67.81	4
95	135558	67.91	4
95	135767	68.01	4
95	135969	68.11	4
95	136167	68.21	4
95	136365	68.31	4
95	136569	68.41	4
95	136769	68.51	4
95	136969	68.61	4
95	137169	68.71	4
95	137373	68.81	4
95	137571	68.91	4
95	137786	69.01	4
95	137990	69.11	4
95	138188	69.21	4
95	138390	69.31	4
95	138596	69.41	4
95	138802	69.51	4
95	139006	69.61	4
95	139208	69.71	4
95	139420	69.81	4
95	139622	69.91	4
95	139825	70.01	4
95	140027	70.11	4
95	140231	70.21	4
95	140437	70.31	4
95	140641	70.41	4
95	140839	70.51	4
95	141039	70.61	4
95	141239	70.71	4
95	141437	70.81	4
95	141641	70.91	4
95	141846	71.01	4
95	142044	71.11	4
95	142244	71.21	4
95	142444	71.31	4
95	142646	71.41	4
95	142846	71.51	4
95	143054	71.61	4
95	143254	71.71	4
95	143468	71.81	4
95	143672	71.91	4
95	143877	72.01	4
95	144077	72.11	4
95	144273	72.21	4
95	144475	72.31	4
95	144677	72.41	4
95	144881	72.51	4
95	145079	72.61	4
95	145287	72.71	4
95	145489	72.81	4
95	145693	72.91	4
95	145902	73.01	4
95	146106	73.11	4
95	146306	73.21	4
95	146508	73.31	4
95	146706	73.41	4
95	146914	73.51	4
95	147112	73.61	4
95	147312	73.71	4
95	147518	73.81	4
95	147720	73.91	4
95	147921	74.01	4
95	148123	74.11	4
95	148323	74.21	4
95	148525	74.31	4
95	148727	74.41	4
95	148927	74.51	4
95	149127	74.61	4
95	149329	74.71	4
95	149539	74.81	4
95	149743	74.91	4
95	149950	75.01	4
95	150152	75.11	4
95	150352	75.21	4
95	150550	75.31	4
95	150752	75.41	4
95	150950	75.51	4
95	151160	75.61	4
95	151360	75.71	4
95	151566	75.81	4
95	151764	75.91	4
95	151973	76.01	4
95	152175	76.11	4
95	152375	76.21	4
95	152579	76.31	4
95	152779	76.41	4
95	152981	76.51	4
95	153185	76.61	4
95	153389	76.71	4
95	153593	76.81	4
95	153793	76.91	4
95	153998	77.01	4
95	154196	77.11	4
95	154394	77.21	4
95	154600	77.31	4
95	154798	77.41	4
95	155002	77.51	4
95	155202	77.61	4
95	155406	77.71	4
95	155606	77.81	4
95	155810	77.91	4
95	156021	78.01	4
95	156225	78.11	4
95	156425	78.21	4
95	156623	78.31	4
95	156823	78.41	4
95	157025	78.51	4
95	157225	78.61	4
95	157427	78.71	4
95	157627	78.81	4
95	157831	78.91	4
95	158036	79.01	4
95	158236	79.11	4
95	158438	79.21	4
95	158640	79.31	4
95	158846	79.41	4
95	159046	79.51	4
95	159250	79.61	4
95	159448	79.71	4
95	159652	79.81	4
95	159854	79.91	4
95	160063	80.01	4
95	160267	80.11	4
95	160467	80.21	4
95	160671	80.31	4
95	160869	80.41	4
95	161073	80.51	4
95	161277	80.61	4
95	161481	80.71	4
95	161683	80.81	4
95	161883	80.91	4
95	162086	81.01	4
95	162284	81.11	4
95	162486	81.21	4
95	162686	81.31	4
95	162888	81.41	4
95	163088	81.51	4
95	163292	81.61	4
95	163492	81.71	4
95	163688	81.81	4
95	163888	81.91	4
95	164101	82.01	4
95	164311	82.11	4
95	164513	82.21	4
95	164711	82.31	4
95	164909	82.41	4
95	165111	82.51	4
95	165311	82.61	4
95	165515	82.71	4
95	165719	82.81	4
95	165919	82.91	4
95	166132	83.01	4
95	166334	83.11	4
95	166538	83.21	4
95	166738	83.31	4
95	166942	83.41	4
95	167142	83.51	4
95	167350	83.61	4
95	167558	83.71	4
95	167762	83.81	4
95	167962	83.91	4
95	168165	84.01	4
95	168365	84.11	4
95	168565	84.21	4
95	168765	84.31	4
95	168965	84.41	4
95	169165	84.51	4
95	169367	84.61	4
95	169567	84.71	4
95	169769	84.81	4
95	169973	84.91	4
95	170184	85.01	4
95	170384	85.11	4
95	170586	85.21	4
95	170786	85.31	4
95	170986	85.41	4
95	171184	85.51	4
95	171386	85.61	4
95	171590	85.71	4
95	171792	85.81	4
95	171996	85.91	4
95	172205	86.01	4
95	172407	86.11	4
95	172611	86.21	4
95	172807	86.31	4
95	173007	86.41	4
95	173209	86.51	4
95	173409	86.61	4
95	173619	86.71	4
95	173823	86.81	4
95	174027	86.91	4
95	174236	87.01	4
95	174436	87.11	4
95	174634	87.21	4
95	174838	87.31	4
95	175034	87.41	4
95	175232	87.51	4
95	175430	87.61	4
95	175632	87.71	4
95	175830	87.81	4
95	176030	87.91	4
95	176237	88.01	4
95	176443	88.11	4
95	176643	88.21	4
95	176845	88.31	4
95	177051	88.41	4
95	177247	88.51	4
95	177453	88.61	4
95	177655	88.71	4
95	177857	88.81	4
95	178055	88.91	4
95	178262	89.01	4
95	178462	89.11	4
95	178660	89.21	4
95	178866	89.31	4
95	179066	89.41	4
95	179268	89.51	4
95	179468	89.61	4
95	179670	89.71	4
95	179872	89.81	4
95	180072	89.91	4
95	180281	90.01	4
95	180491	90.11	4
95	180691	90.21	4
95	180903	90.31	4
95	181099	90.41	4
95	181299	90.51	4
95	181501	90.61	4
95	181705	90.71	4
95	181907	90.81	4
95	182103	90.91	4
95	182316	91.01	4
95	182514	91.11	4
95	182714	91.21	4
95	182916	91.31	4
95	183114	91.41	4
95	183318	91.51	4
95	183514	91.61	4
95	183714	91.71	4
95	183914	91.81	4
95	184116	91.91	4
95	184323	92.01	4
95	184527	92.11	4
95	184727	92.21	4
95	184929	92.31	4
95	185127	92.41	4
95	185327	92.51	4
95	185531	92.61	4
95	185731	92.71	4
95	185935	92.81	4
95	186141	92.91	4
95	186346	93.01	4
95	186546	93.11	4
95	186746	93.21	4
95	186950	93.31	4
95	187152	93.41	4
95	187352	93.51	4
95	187554	93.61	4
95	187756	93.71	4
95	187956	93.81	4
95	188158	93.91	4
95	188363	94.01	4
95	188563	94.11	4
95	188761	94.21	4
95	188959	94.31	4
95	189167	94.41	4
95	189369	94.51	4
95	189573	94.61	4
95	189779	94.71	4
95	189977	94.81	4
95	190177	94.91	4
95	190382	95.01	4
95	190582	95.11	4
95	190782	95.21	4
95	190986	95.31	4
95	191188	95.41	4
95	191390	95.51	4
95	191590	95.61	4
95	191792	95.71	4
95	191990	95.81	4
95	192194	95.91	4
95	192399	96.01	4
95	192601	96.11	4
95	192797	96.21	4
95	193003	96.31	4
95	193207	96.41	4
95	193407	96.51	4
95	193611	96.61	4
95	193815	96.71	4
95	194011	96.81	4
95	194213	96.91	4
95	194418	97.01	4
95	194622	97.11	4
95	194824	97.21	4
95	195026	97.31	4
95	195230	97.41	4
95	195436	97.51	4
95	195634	97.61	4
95	195838	97.71	4
95	196048	97.81	4
95	196248	97.91	4
95	196463	98.01	4
95	196663	98.11	4
95	196869	98.21	4
95	197067	98.31	4
95	197269	98.41	4
95	197469	98.51	4
95	197673	98.61	4
95	197881	98.71	4
95	198085	98.81	4
95	198293	98.91	4
95	198496	99.01	4
95	198700	99.11	4
95	198900	99.21	4
95	199100	99.31	4
95	199308	99.41	4
95	199520	99.51	4
95	199726	99.61	4
95	199926	99.71	4
95	200128	99.81	4
95	200334	99.91	4
95	200543	100.01	4
95	200738	100.11	4
95	200941	100.21	4
95	201144	100.31	4
95	201345	100.41	4
95	201544	100.51	4
95	201747	100.61	4
95	201946	100.71	4
95	202149	100.81	4
95	202348	100.91	4
95	202548	101.01	4
95	202749	101.11	4
95	202950	101.21	4
95	203151	101.31	4
95	203354	101.41	4
95	203561	101.51	4
95	203760	101.61	4
95	203957	101.71	4
95	204156	101.81	4
95	204359	101.91	4
95	204561	102.01	4
95	204760	102.11	4
95	204963	102.21	4
95	205164	102.31	4
95	205367	102.41	4
95	205566	102.51	4
95	205765	102.61	4
95	205960	102.71	4
95	206155	102.81	4
95	206354	102.91	4
95	206558	103.01	4
95	206759	103.11	4
95	206962	103.21	4
95	207159	103.31	4
95	207360	103.41	4
95	207561	103.51	4
95	207766	103.61	4
95	207971	103.71	4
95	208174	103.81	4
95	208371	103.91	4
95	208581	104.01	4
95	208778	104.11	4
95	208973	104.21	4
95	209176	104.31	4
95	209375	104.41	4
95	209574	104.51	4
95	209773	104.61	4
95	209976	104.71	4
95	210183	104.81	4
95	210384	104.91	4
95	210592	105.01	4
95	210793	105.11	4
95	210990	105.21	4
95	211189	105.31	4
95	211398	105.41	4
95	211597	105.51	4
95	211806	105.61	4
95	212005	105.71	4
95	212202	105.81	4
95	212399	105.91	4
95	212601	106.01	4
95	212804	106.11	4
95	213009	106.21	4
95	213216	106.31	4
95	213415	106.41	4
95	213616	106.51	4
95	213817	106.61	4
95	214018	106.71	4
95	214213	106.81	4
95	214412	106.91	4
95	214618	107.01	4
95	214821	107.11	4
95	215016	107.21	4
95	215211	107.31	4
95	215416	107.41	4
95	215613	107.51	4
95	215818	107.61	4
95	216021	107.71	4
95	216230	107.81	4
95	216429	107.91	4
95	216631	108.01	4
95	216832	108.11	4
95	217027	108.21	4
95	217232	108.31	4
95	217433	108.41	4
95	217636	108.51	4
95	217837	108.61	4
95	218032	108.71	4
95	218229	108.81	4
95	218430	108.91	4
95	218640	109.01	4
95	218837	109.11	4
95	219034	109.21	4
95	219233	109.31	4
95	219432	109.41	4
95	219629	109.51	4
95	219824	109.61	4
95	220027	109.71	4
95	220230	109.81	4
95	220431	109.91	4
95	220631	110.01	4
95	220834	110.11	4
95	221033	110.21	4
95	221234	110.31	4
95	221441	110.41	4
95	221642	110.51	4
95	221849	110.61	4
95	222052	110.71	4
95	222257	110.81	4
95	222456	110.91	4
95	222664	111.01	4
95	222865	111.11	4
95	223062	111.21	4
95	223263	111.31	4
95	223466	111.41	4
95	223663	111.51	4
95	223858	111.61	4
95	224061	111.71	4
95	224260	111.81	4
95	224455	111.91	4
95	224657	112.01	4
95	224862	112.11	4
95	225059	112.21	4
95	225264	112.31	4
95	225471	112.41	4
95	225672	112.51	4
95	225875	112.61	4
95	226080	112.71	4
95	226279	112.81	4
95	226474	112.91	4
95	226680	113.01	4
95	226885	113.11	4
95	227084	113.21	4
95	227285	113.31	4
95	227486	113.41	4
95	227689	113.51	4
95	227892	113.61	4
95	228093	113.71	4
95	228294	113.81	4
95	228495	113.91	4
95	228705	114.01	4
95	228906	114.11	4
95	229111	114.21	4
95	229314	114.31	4
95	229517	114.41	4
95	229718	114.51	4
95	229919	114.61	4
95	230128	114.71	4
95	230329	114.81	4
95	230526	114.91	4
95	230734	115.01	4
95	230931	115.11	4
95	231136	115.21	4
95	231341	115.31	4
95	231542	115.41	4
95	231749	115.51	4
95	231950	115.61	4
95	232155	115.71	4
95	232356	115.81	4
95	232553	115.91	4
95	232767	116.01	4
95	232972	116.11	4
95	233175	116.21	4
95	233380	116.31	4
95	233585	116.41	4
95	233786	116.51	4
95	233987	116.61	4
95	234188	116.71	4
95	234389	116.81	4
95	234586	116.91	4
95	234796	117.01	4
95	234999	117.11	4
95	235202	117.21	4
95	235403	117.31	4
95	235602	117.41	4
95	235801	117.51	4
95	236000	117.61	4
95	236201	117.71	4
95	236400	117.81	4
95	236601	117.91	4
95	236803	118.01	4
95	237000	118.11	4
95	237207	118.21	4
95	237404	118.31	4
95	237605	118.41	4
95	237806	118.51	4
95	238007	118.61	4
95	238214	118.71	4
95	238415	118.81	4
95	238616	118.91	4
95	238826	119.01	4
95	239027	119.11	4
95	239230	119.21	4
95	239431	119.31	4
95	239630	119.41	4
95	239833	119.51	4
95	240036	119.61	4
95	240237	119.71	4
95	240438	119.81	4
95	240641	119.91	4
103	4832	4	0
103	6849	5	0
103	8854	6	0
103	10885	7	0
103	12886	8	0
103	14897	9	0
103	16926	10	0
103	18929	11	0
103	20942	12	0
103	22959	13	0
103	26747	14	0
103	28776	15	0
103	30811	16	0
103	32838	17	0
103	34871	18	0
103	36902	19	0
103	38907	20	0
103	40922	21	0
103	42947	22	0
103	44952	23	0
103	46973	24	0
103	48996	25	0
103	50995	26	0
103	53016	27	0
103	55039	28	0
103	57066	29	0
103	59079	30	0
103	61086	31	0
103	63109	32	0
103	65128	33	0
103	67137	34	0
103	69146	35	0
103	71145	36	0
103	73158	37	0
103	75157	38	0
103	77170	39	0
103	79171	40	0
103	81180	41	0
103	83203	42	0
103	85214	43	0
103	87215	44	0
103	89224	45	0
103	91229	46	0
103	93266	47	0
103	95315	48	0
103	97334	49	0
103	99339	50	0
103	101364	51	0
103	103387	52	0
103	105394	53	0
103	107401	54	0
103	109399	55	0
103	111413	56	0
103	113452	57	0
103	115473	58	0
103	117508	59	0
103	119545	60	0
103	121566	61	0
103	123599	62	0
103	125624	63	0
103	127629	64	0
103	129642	65	0
103	131677	66	0
103	133704	67	0
103	135723	68	0
103	137740	69	0
103	139783	70	0
103	141804	71	0
103	143835	72	0
103	145856	73	0
103	147879	74	0
103	149906	75	0
103	151927	76	0
103	153956	77	0
103	155973	78	0
103	157994	79	0
103	160019	80	0
103	162042	81	0
103	164055	82	0
103	166088	83	0
103	168123	84	0
103	170140	85	0
103	172163	86	0
103	174194	87	0
103	176193	88	0
103	178220	89	0
103	180237	90	0
103	182272	91	0
103	184281	92	0
103	186302	93	0
103	188321	94	0
103	190338	95	0
103	192357	96	0
103	194376	97	0
103	196417	98	0
103	198454	99	0
103	200502	100	0
103	202507	101	0
103	204520	102	0
103	206515	103	0
103	208540	104	0
103	210551	105	0
103	212560	106	0
103	214575	107	0
103	216590	108	0
103	218599	109	0
103	220590	110	0
103	222617	111	0
103	224616	112	0
103	226637	113	0
103	228660	114	0
103	230693	115	0
103	232726	116	0
103	234755	117	0
103	236760	118	0
103	238783	119	0
103	240802	120	0
102	4832	4	0.023817
102	6849	5	0.02481
102	8854	6	0.02481
102	10885	7	0.02481
102	12886	8	0.02481
102	14897	9	0.02481
102	16926	10	0.02481
102	18929	11	0.02481
102	20942	12	0.02481
102	22959	13	0.02481
102	26747	14	0.037124
102	28776	15	0.02481
102	30811	16	0.02481
102	32838	17	0.02481
102	34871	18	0.02481
102	36902	19	0.02481
102	38907	20	0.02481
102	40922	21	0.02481
102	42947	22	0.02481
102	44952	23	0.02481
102	46973	24	0.02481
102	48996	25	0.02481
102	50995	26	0.02481
102	53016	27	0.02481
102	55039	28	0.02481
102	57066	29	0.02481
102	59079	30	0.02481
102	61086	31	0.02481
102	63109	32	0.02481
102	65128	33	0.02481
102	67137	34	0.02481
102	69146	35	0.02481
102	71145	36	0.02481
102	73158	37	0.02481
102	75157	38	0.02481
102	77170	39	0.02481
102	79171	40	0.02481
102	81180	41	0.02481
102	83203	42	0.02481
102	85214	43	0.02481
102	87215	44	0.02481
102	89224	45	0.02481
102	91229	46	0.02481
102	93266	47	0.02481
102	95315	48	0.02481
102	97334	49	0.02481
102	99339	50	0.02481
102	101364	51	0.02481
102	103387	52	0.02481
102	105394	53	0.02481
102	107401	54	0.02481
102	109399	55	0.02481
102	111413	56	0.02481
102	113452	57	0.02481
102	115473	58	0.02481
102	117508	59	0.02481
102	119545	60	0.02481
102	121566	61	0.02481
102	123599	62	0.02481
102	125624	63	0.02481
102	127629	64	0.02481
102	129642	65	0.02481
102	131677	66	0.02481
102	133704	67	0.02481
102	135723	68	0.02481
102	137740	69	0.02481
102	139783	70	0.02481
102	141804	71	0.02481
102	143835	72	0.02481
102	145856	73	0.02481
102	147879	74	0.02481
102	149906	75	0.02481
102	151927	76	0.02481
102	153956	77	0.02481
102	155973	78	0.02481
102	157994	79	0.02481
102	160019	80	0.02481
102	162042	81	0.02481
102	164055	82	0.02481
102	166088	83	0.02481
102	168123	84	0.02481
102	170140	85	0.02481
102	172163	86	0.02481
102	174194	87	0.02481
102	176193	88	0.02481
102	178220	89	0.02481
102	180237	90	0.02481
102	182272	91	0.02481
102	184281	92	0.02481
102	186302	93	0.02481
102	188321	94	0.02481
102	190338	95	0.02481
102	192357	96	0.02481
102	194376	97	0.02481
102	196417	98	0.02481
102	198454	99	0.02481
102	200502	100	0.02481
102	202507	101	0.02481
102	204520	102	0.02481
102	206515	103	0.02481
102	208540	104	0.02481
102	210551	105	0.02481
102	212560	106	0.02481
102	214575	107	0.02481
102	216590	108	0.02481
102	218599	109	0.02481
102	220590	110	0.02481
102	222617	111	0.02481
102	224616	112	0.02481
102	226637	113	0.02481
102	228660	114	0.02481
102	230693	115	0.02481
102	232726	116	0.02481
102	234755	117	0.02481
102	236760	118	0.02481
102	238783	119	0.02481
102	240802	120	0.02481
101	4832	4	4
101	6849	5	4
101	8854	6	4
101	10885	7	4
101	12886	8	4
101	14897	9	4
101	16926	10	4
101	18929	11	4
101	20942	12	4
101	22959	13	4
101	26747	14	4
101	28776	15	4
101	30811	16	4
101	32838	17	4
101	34871	18	4
101	36902	19	4
101	38907	20	4
101	40922	21	4
101	42947	22	4
101	44952	23	4
101	46973	24	4
101	48996	25	4
101	50995	26	4
101	53016	27	4
101	55039	28	4
101	57066	29	4
101	59079	30	4
101	61086	31	4
101	63109	32	4
101	65128	33	4
101	67137	34	4
101	69146	35	4
101	71145	36	4
101	73158	37	4
101	75157	38	4
101	77170	39	4
101	79171	40	4
101	81180	41	4
101	83203	42	4
101	85214	43	4
101	87215	44	4
101	89224	45	4
101	91229	46	4
101	93266	47	4
101	95315	48	4
101	97334	49	4
101	99339	50	4
101	101364	51	4
101	103387	52	4
101	105394	53	4
101	107401	54	4
101	109399	55	4
101	111413	56	4
101	113452	57	4
101	115473	58	4
101	117508	59	4
101	119545	60	4
101	121566	61	4
101	123599	62	4
101	125624	63	4
101	127629	64	4
101	129642	65	4
101	131677	66	4
101	133704	67	4
101	135723	68	4
101	137740	69	4
101	139783	70	4
101	141804	71	4
101	143835	72	4
101	145856	73	4
101	147879	74	4
101	149906	75	4
101	151927	76	4
101	153956	77	4
101	155973	78	4
101	157994	79	4
101	160019	80	4
101	162042	81	4
101	164055	82	4
101	166088	83	4
101	168123	84	4
101	170140	85	4
101	172163	86	4
101	174194	87	4
101	176193	88	4
101	178220	89	4
101	180237	90	4
101	182272	91	4
101	184281	92	4
101	186302	93	4
101	188321	94	4
101	190338	95	4
101	192357	96	4
101	194376	97	4
101	196417	98	4
101	198454	99	4
101	200502	100	4
101	202507	101	4
101	204520	102	4
101	206515	103	4
101	208540	104	4
101	210551	105	4
101	212560	106	4
101	214575	107	4
101	216590	108	4
101	218599	109	4
101	220590	110	4
101	222617	111	4
101	224616	112	4
101	226637	113	4
101	228660	114	4
101	230693	115	4
101	232726	116	4
101	234755	117	4
101	236760	118	4
101	238783	119	4
101	240802	120	4
