version 2
run MyJoinManeuverNoGui-2-20210521-03:01:30-80281
attr actDelay 0.5
attr configname MyJoinManeuverNoGui
attr controller 0
attr datetime 20210521-03:01:30
attr experiment MyJoinManeuverNoGui
attr headway 0.3
attr inifile omnetpp.ini
attr iterationvars "$nCars=4, $controller=0, $sController=\"ACC\", $headway=0.3, $oscillationAmp=35, $actDelay=0.5, $thermalNoise=-95, $txPower=100, $packetLossRate=0.8, $leaderHeadway=1.2, $leaderSpeed=100, $priority=2"
attr iterationvarsf nCars=4,controller=0,sController=ACC,headway=0.3,oscillationAmp=35,actDelay=0.5,thermalNoise=-95,txPower=100,packetLossRate=0.8,leaderHeadway=1.2,leaderSpeed=100,priority=2-
attr leaderHeadway 1.2
attr leaderSpeed 100
attr measurement "$nCars=4, $controller=0, $sController=\"ACC\", $headway=0.3, $oscillationAmp=35, $actDelay=0.5, $thermalNoise=-95, $txPower=100, $packetLossRate=0.8, $leaderHeadway=1.2, $leaderSpeed=100, $priority=2"
attr nCars 4
attr network Highway
attr oscillationAmp 35
attr packetLossRate 0.8
attr priority 2
attr processid 80281
attr repetition 0
attr replication #0
attr resultdir results
attr runnumber 2
attr sController "\"ACC\""
attr seedset 0
attr thermalNoise -95
attr txPower 100
param **.controllerOmegaN 0.2
param **.controllerXi 1
param **.coreDebug false
param **.debug false
param **.headway 0.3s
param **.numberOfLanes 1
param **.numericController 0
param **.seed 0
param **.traffic.nCars 4
param **.traffic.nLanes 1
param **.traffic.platoonInsertDistance "2 m"
param **.traffic.platoonInsertHeadway "0.3 s"
param **.traffic.platoonInsertSpeed 100kmph
param **.traffic.platoonInsertTime "1 s"
param **.traffic.platoonSize 4
param **.traffic.platooningVType "\"vtypeauto\""
param **.traffic_type "\"JoinTrafficManager\""
param *.**.nic.mac1609_4.bitrate 6Mbps
param *.**.nic.mac1609_4.txPower 100mW
param *.**.nic.mac1609_4.useServiceChannel false
param *.**.nic.phy80211p.analogueModels "xmldoc(\"config.xml\")"
param *.**.nic.phy80211p.decider "xmldoc(\"config.xml\")"
param *.**.nic.phy80211p.maxTXPower 100mW
param *.**.nic.phy80211p.sensitivity -94dBm
param *.**.nic.phy80211p.thermalNoise -95dBm
param *.**.nic.phy80211p.usePropagationDelay false
param *.**.nic.phy80211p.useThermalNoise true
param *.annotations.draw false
param *.connectionManager.drawMaxIntfDist false
param *.connectionManager.maxInterfDist 2600m
param *.connectionManager.sendDirect true
param *.manager.autoShutdown true
param *.manager.configFile "\"./sumocfg/freeway.sumo.cfg\""
param *.manager.host "\"localhost\""
param *.manager.margin 25
param *.manager.moduleDisplayString "\"\""
param *.manager.moduleName "\"node\""
param *.manager.moduleType "\"org.car2x.veins.modules.application.platooning.PlatoonCar\""
param *.manager.updateInterval 0.01s
param *.manager.useGui true
param *.node[*].appl.controller "\"ACC\""
param *.node[*].appl.joinManeuver "\"JoinAtBack\""
param *.node[*].appl_type "\"GeneralPlatooningApp\""
param *.node[*].helper.nCars 4
param *.node[*].helper.nLanes 1
param *.node[*].helper.platoonSize 4
param *.node[*].helper_type "\"LocalPlatoonPositionHelper\""
param *.node[*].mobility.x 0
param *.node[*].mobility.y 0
param *.node[*].mobility.z 1.895
param *.node[*].prot.beaconingInterval "0.1 s"
param *.node[*].prot.packetSize 200
param *.node[*].prot.priority 2
param *.node[*].protocol_type "\"SimplePlatooningBeaconing\""
param *.node[*].scenario.accHeadway "0.1 s"
param *.node[*].scenario.brakingDeceleration "8 mpsps"
param *.node[*].scenario.caccC1 0.5
param *.node[*].scenario.caccOmegaN "0.2 Hz"
param *.node[*].scenario.caccXi 1
param *.node[*].scenario.controller "\"ACC\""
param *.node[*].scenario.engineTau "0.5 s"
param *.node[*].scenario.leaderHeadway 1.2s
param *.node[*].scenario.leaderOscillationFrequency "0.2 Hz"
param *.node[*].scenario.leaderSpeed 100kmph
param *.node[*].scenario.nCars 4
param *.node[*].scenario.oscillationAmplitude "35 kmph"
param *.node[*].scenario.ploegH "0.5 s"
param *.node[*].scenario.ploegKd 0.7
param *.node[*].scenario.ploegKp 0.2
param *.node[*].scenario.startBraking "55 s"
param *.node[*].scenario.startOscillating "55 s"
param *.node[*].scenario.stopOscillating "100 s"
param *.node[*].scenario.useBrakingDisturbance false
param *.node[*].scenario.useControllerAcceleration true
param *.node[*].scenario.useRealisticEngine false
param *.node[*].scenario.useSinusoidalDisturbance true
param *.node[*].scenario_type "\"MyJoinManeuverScenario\""
param *.node[*].unicast.packetLossRate 0.8
param *.obstacles.debug false
param *.playgroundSizeX 65000m
param *.playgroundSizeY 25000m
param *.playgroundSizeZ 50m
param *.world.use2D false
param *.world.useTorus false

vector 231  Highway.node[0].appl  distance  ETV
vector 232  Highway.node[0].appl  relativeSpeed  ETV
vector 233  Highway.node[0].appl  nodeId  ETV
vector 237  Highway.node[0].appl  acceleration  ETV
vector 238  Highway.node[0].appl  controllerAcceleration  ETV
vector 234  Highway.node[0].appl  speed  ETV
vector 235  Highway.node[0].appl  posx  ETV
vector 236  Highway.node[0].appl  posy  ETV
vector 254  Highway.node[1].appl  distance  ETV
vector 255  Highway.node[1].appl  relativeSpeed  ETV
vector 256  Highway.node[1].appl  nodeId  ETV
vector 260  Highway.node[1].appl  acceleration  ETV
vector 261  Highway.node[1].appl  controllerAcceleration  ETV
vector 257  Highway.node[1].appl  speed  ETV
vector 258  Highway.node[1].appl  posx  ETV
vector 259  Highway.node[1].appl  posy  ETV
vector 277  Highway.node[2].appl  distance  ETV
vector 278  Highway.node[2].appl  relativeSpeed  ETV
vector 279  Highway.node[2].appl  nodeId  ETV
vector 283  Highway.node[2].appl  acceleration  ETV
vector 284  Highway.node[2].appl  controllerAcceleration  ETV
vector 280  Highway.node[2].appl  speed  ETV
vector 281  Highway.node[2].appl  posx  ETV
vector 282  Highway.node[2].appl  posy  ETV
vector 300  Highway.node[3].appl  distance  ETV
vector 301  Highway.node[3].appl  relativeSpeed  ETV
vector 302  Highway.node[3].appl  nodeId  ETV
vector 306  Highway.node[3].appl  acceleration  ETV
vector 307  Highway.node[3].appl  controllerAcceleration  ETV
vector 303  Highway.node[3].appl  speed  ETV
vector 304  Highway.node[3].appl  posx  ETV
vector 305  Highway.node[3].appl  posy  ETV
vector 291  Highway.node[2].prot  frontDelay  ETV
vector 289  Highway.node[2].prot  frontDelayId  ETV
vector 239  Highway.node[0].prot  nodeId  ETV
vector 240  Highway.node[0].prot  busyTime  ETV
vector 241  Highway.node[0].prot  collisions  ETV
vector 262  Highway.node[1].prot  nodeId  ETV
vector 263  Highway.node[1].prot  busyTime  ETV
vector 264  Highway.node[1].prot  collisions  ETV
vector 285  Highway.node[2].prot  nodeId  ETV
vector 286  Highway.node[2].prot  busyTime  ETV
vector 287  Highway.node[2].prot  collisions  ETV
vector 308  Highway.node[3].prot  nodeId  ETV
vector 309  Highway.node[3].prot  busyTime  ETV
vector 310  Highway.node[3].prot  collisions  ETV
vector 314  Highway.node[3].prot  frontDelay  ETV
vector 312  Highway.node[3].prot  frontDelayId  ETV
vector 313  Highway.node[3].prot  leaderDelay  ETV
vector 311  Highway.node[3].prot  leaderDelayId  ETV
vector 267  Highway.node[1].prot  leaderDelay  ETV
vector 265  Highway.node[1].prot  leaderDelayId  ETV
vector 268  Highway.node[1].prot  frontDelay  ETV
vector 266  Highway.node[1].prot  frontDelayId  ETV
vector 290  Highway.node[2].prot  leaderDelay  ETV
vector 288  Highway.node[2].prot  leaderDelayId  ETV
vector 323  Highway.node[4].appl  distance  ETV
vector 324  Highway.node[4].appl  relativeSpeed  ETV
vector 325  Highway.node[4].appl  nodeId  ETV
vector 329  Highway.node[4].appl  acceleration  ETV
vector 330  Highway.node[4].appl  controllerAcceleration  ETV
vector 326  Highway.node[4].appl  speed  ETV
vector 327  Highway.node[4].appl  posx  ETV
vector 328  Highway.node[4].appl  posy  ETV
vector 331  Highway.node[4].prot  nodeId  ETV
vector 332  Highway.node[4].prot  busyTime  ETV
vector 333  Highway.node[4].prot  collisions  ETV
vector 337  Highway.node[4].prot  frontDelay  ETV
vector 335  Highway.node[4].prot  frontDelayId  ETV
vector 336  Highway.node[4].prot  leaderDelay  ETV
vector 334  Highway.node[4].prot  leaderDelayId  ETV
238	228	1.11	-0.00218518
238	366	1.21	-0.00213419
238	508	1.31	-0.00205408
238	648	1.41	-0.00195152
238	799	1.51	-0.00183238
238	939	1.61	-0.00170178
238	1079	1.71	-0.00156412
238	1218	1.81	-0.00142314
238	1358	1.91	-0.00128196
238	1504	2.01	-0.00114315
238	1644	2.11	-0.00100877
238	1780	2.21	-0.000880447
238	1926	2.31	-0.000759381
238	2064	2.41	-0.000646445
238	2204	2.51	-0.000542204
238	2346	2.61	-0.000446965
238	2486	2.71	-0.000360819
238	2624	2.81	-0.000283678
238	2768	2.91	-0.000215307
238	2911	3.01	-0.000155357
238	3076	3.11	-0.000103391
238	3281	3.21	-5.89069e-05
238	3482	3.31	-2.13575e-05
238	3681	3.41	9.82919e-06
238	3888	3.51	3.52368e-05
238	4087	3.61	5.54479e-05
238	4284	3.71	7.10335e-05
238	4490	3.81	8.25451e-05
238	4697	3.91	9.05081e-05
238	4905	4.01	9.54172e-05
238	5110	4.11	9.7733e-05
238	5317	4.21	9.78798e-05
238	5524	4.31	9.62447e-05
238	5727	4.41	9.31771e-05
238	5930	4.51	8.89894e-05
238	6127	4.61	8.39579e-05
238	6328	4.71	7.83245e-05
238	6531	4.81	7.22983e-05
238	6734	4.91	6.6058e-05
238	6944	5.01	5.9754e-05
238	7143	5.11	5.35107e-05
238	7342	5.21	4.74294e-05
238	7549	5.31	4.15898e-05
238	7746	5.41	3.60534e-05
238	7949	5.51	3.0865e-05
238	8156	5.61	2.60551e-05
238	8359	5.71	2.16419e-05
238	8558	5.81	1.76335e-05
238	8761	5.91	1.40289e-05
238	8967	6.01	1.08202e-05
238	9170	6.11	7.99392e-06
238	9375	6.21	5.532e-06
238	9578	6.31	3.41315e-06
238	9787	6.41	1.61374e-06
238	9996	6.51	1.08654e-07
238	10201	6.61	-1.12799e-06
238	10406	6.71	-2.12224e-06
238	10613	6.81	-2.89981e-06
238	10820	6.91	-3.48567e-06
238	11026	7.01	-3.90376e-06
238	11231	7.11	-4.17673e-06
238	11436	7.21	-4.32574e-06
238	11633	7.31	-4.3704e-06
238	11834	7.41	-4.32865e-06
238	12039	7.51	-4.21676e-06
238	12242	7.61	-4.04934e-06
238	12443	7.71	-3.83937e-06
238	12644	7.81	-3.59826e-06
238	12841	7.91	-3.33592e-06
238	13047	8.01	-3.06089e-06
238	13246	8.11	-2.78036e-06
238	13455	8.21	-2.50036e-06
238	13656	8.31	-2.22582e-06
238	13859	8.41	-1.96068e-06
238	14058	8.51	-1.708e-06
238	14265	8.61	-1.47009e-06
238	14470	8.71	-1.24855e-06
238	14667	8.81	-1.04441e-06
238	14868	8.91	-8.58219e-07
238	15074	9.01	-6.90082e-07
238	15277	9.11	-5.39774e-07
238	15486	9.21	-4.06787e-07
238	15695	9.31	-2.90396e-07
238	15904	9.41	-1.89707e-07
238	16107	9.51	-1.03704e-07
238	16304	9.61	-3.12909e-08
238	16509	9.71	2.86736e-08
238	16706	9.81	7.73515e-08
238	16915	9.91	1.15897e-07
238	17121	10.01	1.45439e-07
238	17318	10.11	1.67065e-07
238	17515	10.21	1.81809e-07
238	17724	10.31	1.90644e-07
238	17925	10.41	1.94472e-07
238	18130	10.51	1.94125e-07
238	18331	10.61	1.90358e-07
238	18530	10.71	1.83853e-07
238	18729	10.81	1.75219e-07
238	18934	10.91	1.64994e-07
238	19146	11.01	1.53647e-07
238	19343	11.11	1.41582e-07
238	19546	11.21	1.29146e-07
238	19747	11.31	1.16627e-07
238	19944	11.41	1.04266e-07
238	20151	11.51	9.22547e-08
238	20354	11.61	8.07471e-08
238	20555	11.71	6.98584e-08
238	20756	11.81	5.96732e-08
238	20959	11.91	5.02471e-08
238	21163	12.01	4.16133e-08
238	21364	12.11	3.37845e-08
238	21571	12.21	2.67558e-08
238	21776	12.31	2.05102e-08
238	21987	12.41	1.50187e-08
238	22186	12.51	1.02442e-08
238	22393	12.61	6.14406e-09
238	22592	12.71	2.67022e-09
238	22797	12.81	-2.27374e-10
238	22996	12.91	-2.60059e-09
238	23207	13.01	-4.50058e-09
238	25170	13.11	-5.97851e-09
238	25375	13.21	-7.08376e-09
238	25576	13.31	-7.86322e-09
238	25781	13.41	-8.36167e-09
238	25980	13.51	-8.62066e-09
238	26185	13.61	-8.67857e-09
238	26386	13.71	-8.57057e-09
238	26589	13.81	-8.32792e-09
238	26790	13.91	-7.97975e-09
238	26994	14.01	-7.55058e-09
238	27197	14.11	-7.06351e-09
238	27398	14.21	-6.53699e-09
238	27595	14.31	-5.98774e-09
238	27794	14.41	-5.42997e-09
238	27997	14.51	-4.87468e-09
238	28206	14.61	-4.33182e-09
238	28407	14.71	-3.80886e-09
238	28612	14.81	-3.31148e-09
238	28817	14.91	-2.84395e-09
238	29029	15.01	-2.40981e-09
238	29238	15.11	-2.01013e-09
238	29447	15.21	-1.64633e-09
238	29654	15.31	-1.31806e-09
238	29853	15.41	-1.02531e-09
238	30056	15.51	-7.66676e-10
238	30255	15.61	-5.40723e-10
238	30460	15.71	-3.46034e-10
238	30665	15.81	-1.79767e-10
238	30872	15.91	-4.01457e-11
238	31084	16.01	7.49623e-11
238	31293	16.11	1.68043e-10
238	31492	16.21	2.41585e-10
238	31695	16.31	2.97362e-10
238	31908	16.41	3.37863e-10
238	32111	16.51	3.64864e-10
238	32312	16.61	3.80851e-10
238	32513	16.71	3.86891e-10
238	32718	16.81	3.84759e-10
238	32927	16.91	3.76232e-10
238	33135	17.01	3.62377e-10
238	33340	17.11	3.44613e-10
238	33541	17.21	3.24007e-10
238	33748	17.31	3.00915e-10
238	33957	17.41	2.76756e-10
238	34158	17.51	2.52243e-10
238	34359	17.61	2.27374e-10
238	34560	17.71	2.0286e-10
238	34771	17.81	1.79057e-10
238	34980	17.91	1.56319e-10
238	35190	18.01	1.35003e-10
238	35395	18.11	1.15108e-10
238	35606	18.21	9.66338e-11
238	35805	18.31	7.99361e-11
238	36014	18.41	6.46594e-11
238	36211	18.51	5.08038e-11
238	36410	18.61	3.83693e-11
238	36621	18.71	2.73559e-11
238	36830	18.81	1.77636e-11
238	37041	18.91	9.59233e-12
238	37247	19.01	2.84217e-12
238	37450	19.11	-2.84217e-12
238	37649	19.21	-7.4607e-12
238	37850	19.31	-1.13687e-11
238	38053	19.41	-1.42109e-11
238	38252	19.51	-1.63425e-11
238	38455	19.61	-1.77636e-11
238	38664	19.71	-1.84741e-11
238	38869	19.81	-1.88294e-11
238	39074	19.91	-1.88294e-11
238	39280	20.01	-1.88294e-11
238	39483	20.11	-1.81188e-11
238	39692	20.21	-1.7053e-11
238	39891	20.31	-1.63425e-11
238	40092	20.41	-1.52767e-11
238	40297	20.51	-1.45661e-11
238	40500	20.61	-1.35003e-11
238	40709	20.71	-1.27898e-11
238	40910	20.81	-1.1724e-11
238	41111	20.91	-1.10134e-11
238	41325	21.01	-9.9476e-12
238	41532	21.11	-9.23706e-12
238	41731	21.21	-8.17124e-12
238	41930	21.31	-7.4607e-12
238	42137	21.41	-6.39488e-12
238	42342	21.51	-5.68434e-12
238	42539	21.61	-4.61853e-12
238	42736	21.71	-3.90799e-12
238	42937	21.81	-2.84217e-12
238	43144	21.91	-2.13163e-12
238	43360	22.01	-1.06581e-12
238	43565	22.11	-3.55271e-13
238	43774	22.21	7.10543e-13
238	43971	22.31	1.42109e-12
238	44166	22.41	2.13163e-12
238	44369	22.51	2.84217e-12
238	44570	22.61	3.19744e-12
238	44771	22.71	3.90799e-12
238	44970	22.81	4.26326e-12
238	45171	22.91	4.61853e-12
238	45381	23.01	5.32907e-12
238	45584	23.11	5.68434e-12
238	45783	23.21	5.68434e-12
238	45982	23.31	6.03961e-12
238	46183	23.41	6.39488e-12
238	46388	23.51	6.75016e-12
238	46591	23.61	6.75016e-12
238	46798	23.71	7.10543e-12
238	47007	23.81	7.10543e-12
238	47208	23.91	7.4607e-12
238	47418	24.01	7.4607e-12
238	47619	24.11	7.81597e-12
238	47826	24.21	7.81597e-12
238	48037	24.31	7.81597e-12
238	48242	24.41	7.81597e-12
238	48447	24.51	8.17124e-12
238	48648	24.61	8.17124e-12
238	48847	24.71	8.17124e-12
238	49048	24.81	8.17124e-12
238	49251	24.91	8.17124e-12
238	49461	25.01	8.52651e-12
238	49662	25.11	8.52651e-12
238	49861	25.21	8.52651e-12
238	50068	25.31	8.52651e-12
238	50269	25.41	8.52651e-12
238	50470	25.51	8.52651e-12
238	50673	25.61	8.52651e-12
238	50872	25.71	8.52651e-12
238	51077	25.81	8.52651e-12
238	51276	25.91	8.52651e-12
238	51480	26.01	8.88178e-12
238	51685	26.11	8.88178e-12
238	51888	26.21	8.88178e-12
238	52091	26.31	8.88178e-12
238	52296	26.41	8.88178e-12
238	52499	26.51	8.88178e-12
238	52702	26.61	8.88178e-12
238	52903	26.71	8.88178e-12
238	53106	26.81	8.88178e-12
238	53305	26.91	8.88178e-12
238	53511	27.01	8.88178e-12
238	53714	27.11	8.88178e-12
238	53913	27.21	8.88178e-12
238	54120	27.31	8.88178e-12
238	54325	27.41	8.88178e-12
238	54524	27.51	8.88178e-12
238	54727	27.61	8.88178e-12
238	54932	27.71	8.88178e-12
238	55137	27.81	8.88178e-12
238	55344	27.91	8.88178e-12
238	55550	28.01	8.88178e-12
238	55749	28.11	8.88178e-12
238	55954	28.21	8.88178e-12
238	56157	28.31	8.88178e-12
238	56362	28.41	8.88178e-12
238	56567	28.51	8.88178e-12
238	56764	28.61	8.88178e-12
238	56967	28.71	8.88178e-12
238	57176	28.81	8.88178e-12
238	57377	28.91	8.88178e-12
238	57585	29.01	8.88178e-12
238	57794	29.11	8.88178e-12
238	57991	29.21	8.88178e-12
238	58192	29.31	8.88178e-12
238	58395	29.41	8.88178e-12
238	58604	29.51	8.88178e-12
238	58803	29.61	8.88178e-12
238	59002	29.71	8.88178e-12
238	59205	29.81	8.88178e-12
238	59412	29.91	8.88178e-12
238	59622	30.01	8.88178e-12
238	59825	30.11	8.88178e-12
238	60030	30.21	8.88178e-12
238	60229	30.31	8.88178e-12
238	60430	30.41	8.88178e-12
238	60627	30.51	8.88178e-12
238	60832	30.61	8.88178e-12
238	61029	30.71	8.88178e-12
238	61240	30.81	8.88178e-12
238	61443	30.91	8.88178e-12
238	61649	31.01	8.88178e-12
238	61846	31.11	8.88178e-12
238	62061	31.21	8.88178e-12
238	62268	31.31	8.88178e-12
238	62475	31.41	8.88178e-12
238	62680	31.51	8.88178e-12
238	62887	31.61	8.88178e-12
238	63094	31.71	8.88178e-12
238	63295	31.81	8.88178e-12
238	63494	31.91	8.88178e-12
238	63698	32.01	8.88178e-12
238	63901	32.11	8.88178e-12
238	64108	32.21	8.88178e-12
238	64317	32.31	8.88178e-12
238	64516	32.41	8.88178e-12
238	64715	32.51	8.88178e-12
238	64920	32.61	8.88178e-12
238	65117	32.71	8.88178e-12
238	65322	32.81	8.88178e-12
238	65527	32.91	8.88178e-12
238	65737	33.01	8.88178e-12
238	65942	33.11	8.88178e-12
238	66141	33.21	8.88178e-12
238	66340	33.31	8.88178e-12
238	66543	33.41	8.88178e-12
238	66756	33.51	8.88178e-12
238	66963	33.61	8.88178e-12
238	67172	33.71	8.88178e-12
238	67369	33.81	8.88178e-12
238	67570	33.91	8.88178e-12
238	67772	34.01	8.88178e-12
238	67973	34.11	8.88178e-12
238	68180	34.21	8.88178e-12
238	68383	34.31	8.88178e-12
238	68596	34.41	8.88178e-12
238	68803	34.51	8.88178e-12
238	69004	34.61	8.88178e-12
238	69211	34.71	8.88178e-12
238	69412	34.81	8.88178e-12
238	69613	34.91	8.88178e-12
238	69825	35.01	8.88178e-12
238	70024	35.11	8.88178e-12
238	70225	35.21	8.88178e-12
238	70424	35.31	8.88178e-12
238	70627	35.41	8.88178e-12
238	70824	35.51	8.88178e-12
238	71031	35.61	8.88178e-12
238	71234	35.71	8.88178e-12
238	71433	35.81	8.88178e-12
238	71636	35.91	8.88178e-12
238	71842	36.01	8.88178e-12
238	72043	36.11	8.88178e-12
238	72252	36.21	8.88178e-12
238	72453	36.31	8.88178e-12
238	72660	36.41	8.88178e-12
238	72855	36.51	8.88178e-12
238	73056	36.61	8.88178e-12
238	73263	36.71	8.88178e-12
238	73466	36.81	8.88178e-12
238	73667	36.91	8.88178e-12
238	73877	37.01	8.88178e-12
238	74078	37.11	8.88178e-12
238	74285	37.21	8.88178e-12
238	74490	37.31	8.88178e-12
238	74693	37.41	8.88178e-12
238	74894	37.51	8.88178e-12
238	75089	37.61	8.88178e-12
238	75288	37.71	8.88178e-12
238	75491	37.81	8.88178e-12
238	75692	37.91	8.88178e-12
238	75898	38.01	8.88178e-12
238	76103	38.11	8.88178e-12
238	76308	38.21	8.88178e-12
238	76509	38.31	8.88178e-12
238	76708	38.41	8.88178e-12
238	76905	38.51	8.88178e-12
238	77108	38.61	8.88178e-12
238	77309	38.71	8.88178e-12
238	77506	38.81	8.88178e-12
238	77715	38.91	8.88178e-12
238	77921	39.01	8.88178e-12
238	78118	39.11	8.88178e-12
238	78321	39.21	8.88178e-12
238	78526	39.31	8.88178e-12
238	78725	39.41	8.88178e-12
238	78928	39.51	8.88178e-12
238	79131	39.61	8.88178e-12
238	79334	39.71	8.88178e-12
238	79539	39.81	8.88178e-12
238	79746	39.91	8.88178e-12
238	79950	40.01	8.88178e-12
238	80149	40.11	8.88178e-12
238	80350	40.21	8.88178e-12
238	80553	40.31	8.88178e-12
238	80756	40.41	8.88178e-12
238	80963	40.51	8.88178e-12
238	81164	40.61	8.88178e-12
238	81369	40.71	8.88178e-12
238	81574	40.81	8.88178e-12
238	81775	40.91	8.88178e-12
238	81979	41.01	8.88178e-12
238	82178	41.11	8.88178e-12
238	82381	41.21	8.88178e-12
238	82586	41.31	8.88178e-12
238	82791	41.41	8.88178e-12
238	82996	41.51	8.88178e-12
238	83199	41.61	8.88178e-12
238	83408	41.71	8.88178e-12
238	83607	41.81	8.88178e-12
238	83812	41.91	8.88178e-12
238	84020	42.01	8.88178e-12
238	84221	42.11	8.88178e-12
238	84422	42.21	8.88178e-12
238	84619	42.31	8.88178e-12
238	84818	42.41	8.88178e-12
238	85019	42.51	8.88178e-12
238	85222	42.61	8.88178e-12
238	85421	42.71	8.88178e-12
238	85626	42.81	8.88178e-12
238	85833	42.91	8.88178e-12
238	86037	43.01	8.88178e-12
238	86240	43.11	8.88178e-12
238	86675	43.21	8.88178e-12
238	90540	43.31	8.88178e-12
238	90741	43.41	8.88178e-12
238	90942	43.51	8.88178e-12
238	91145	43.61	8.88178e-12
238	91352	43.71	8.88178e-12
238	91561	43.81	8.88178e-12
238	91764	43.91	8.88178e-12
238	91974	44.01	8.88178e-12
238	92181	44.11	8.88178e-12
238	92386	44.21	8.88178e-12
238	92587	44.31	8.88178e-12
238	92792	44.41	8.88178e-12
238	93001	44.51	8.88178e-12
238	93204	44.61	8.88178e-12
238	93409	44.71	8.88178e-12
238	93616	44.81	8.88178e-12
238	93821	44.91	8.88178e-12
238	94037	45.01	8.88178e-12
238	94238	45.11	8.88178e-12
238	94443	45.21	8.88178e-12
238	94646	45.31	8.88178e-12
238	94859	45.41	8.88178e-12
238	95062	45.51	8.88178e-12
238	95267	45.61	8.88178e-12
238	95472	45.71	8.88178e-12
238	95679	45.81	8.88178e-12
238	95884	45.91	8.88178e-12
238	96092	46.01	8.88178e-12
238	96295	46.11	8.88178e-12
238	96498	46.21	8.88178e-12
238	96699	46.31	8.88178e-12
238	96904	46.41	8.88178e-12
238	97107	46.51	8.88178e-12
238	97308	46.61	8.88178e-12
238	97511	46.71	8.88178e-12
238	97714	46.81	8.88178e-12
238	97915	46.91	8.88178e-12
238	98127	47.01	8.88178e-12
238	98334	47.11	8.88178e-12
238	98535	47.21	8.88178e-12
238	98730	47.31	8.88178e-12
238	98933	47.41	8.88178e-12
238	99136	47.51	8.88178e-12
238	99341	47.61	8.88178e-12
238	99544	47.71	8.88178e-12
238	99751	47.81	8.88178e-12
238	99954	47.91	8.88178e-12
238	100162	48.01	8.88178e-12
238	100369	48.11	8.88178e-12
238	100576	48.21	8.88178e-12
238	100779	48.31	8.88178e-12
238	100984	48.41	8.88178e-12
238	101189	48.51	8.88178e-12
238	101386	48.61	8.88178e-12
238	101585	48.71	8.88178e-12
238	101784	48.81	8.88178e-12
238	101983	48.91	8.88178e-12
238	102193	49.01	8.88178e-12
238	102402	49.11	8.88178e-12
238	102609	49.21	8.88178e-12
238	102812	49.31	8.88178e-12
238	103021	49.41	8.88178e-12
238	103218	49.51	8.88178e-12
238	103425	49.61	8.88178e-12
238	103628	49.71	8.88178e-12
238	103827	49.81	8.88178e-12
238	104028	49.91	8.88178e-12
238	104232	50.01	8.88178e-12
238	104435	50.11	8.88178e-12
238	104638	50.21	8.88178e-12
238	104837	50.31	8.88178e-12
238	105046	50.41	8.88178e-12
238	105243	50.51	8.88178e-12
238	105444	50.61	8.88178e-12
238	105643	50.71	8.88178e-12
238	105848	50.81	8.88178e-12
238	106057	50.91	8.88178e-12
238	106265	51.01	8.88178e-12
238	106462	51.11	8.88178e-12
238	106665	51.21	8.88178e-12
238	106862	51.31	8.88178e-12
238	107063	51.41	8.88178e-12
238	107260	51.51	8.88178e-12
238	107461	51.61	8.88178e-12
238	107662	51.71	8.88178e-12
238	107865	51.81	8.88178e-12
238	108070	51.91	8.88178e-12
238	108278	52.01	8.88178e-12
238	108481	52.11	8.88178e-12
238	108684	52.21	8.88178e-12
238	108887	52.31	8.88178e-12
238	109086	52.41	8.88178e-12
238	109281	52.51	8.88178e-12
238	109478	52.61	8.88178e-12
238	109681	52.71	8.88178e-12
238	109886	52.81	8.88178e-12
238	110087	52.91	8.88178e-12
238	110289	53.01	8.88178e-12
238	110492	53.11	8.88178e-12
238	110699	53.21	8.88178e-12
238	110902	53.31	8.88178e-12
238	111109	53.41	8.88178e-12
238	111310	53.51	8.88178e-12
238	111511	53.61	8.88178e-12
238	111712	53.71	8.88178e-12
238	111921	53.81	8.88178e-12
238	112124	53.91	8.88178e-12
238	112334	54.01	8.88178e-12
238	112537	54.11	8.88178e-12
238	112736	54.21	8.88178e-12
238	112943	54.31	8.88178e-12
238	113146	54.41	8.88178e-12
238	113351	54.51	8.88178e-12
238	113548	54.61	8.88178e-12
238	113747	54.71	8.88178e-12
238	113948	54.81	8.88178e-12
238	114149	54.91	8.88178e-12
238	114356	55.01	8.88178e-12
238	114554	55.11	1.2185
238	114762	55.21	1.5
238	114970	55.31	1.5
238	115180	55.41	1.5
238	115386	55.51	1.5
238	115586	55.61	1.5
238	115788	55.71	1.5
238	116000	55.81	1.5
238	116206	55.91	1.5
238	116415	56.01	1.5
238	116619	56.11	1.5
238	116827	56.21	1.5
238	117029	56.31	1.5
238	117237	56.41	1.5
238	117439	56.51	1.5
238	117649	56.61	1.5
238	117851	56.71	1.5
238	118057	56.81	1.5
238	118257	56.91	1.5
238	118468	57.01	1.5
238	118674	57.11	1.5
238	118880	57.21	1.19532
238	119088	57.31	-0.110135
238	119296	57.41	-1.43483
238	119500	57.51	-1.5
238	119706	57.61	-1.5
238	119910	57.71	-1.5
238	120108	57.81	-1.5
238	120312	57.91	-1.5
238	120521	58.01	-1.5
238	120723	58.11	-1.5
238	120925	58.21	-1.5
238	121129	58.31	-1.5
238	121339	58.41	-1.5
238	121543	58.51	-1.5
238	121745	58.61	-1.5
238	121951	58.71	-1.5
238	122149	58.81	-1.5
238	122355	58.91	-1.5
238	122568	59.01	-1.5
238	122770	59.11	-1.5
238	122976	59.21	-1.5
238	123178	59.31	-1.5
238	123376	59.41	-1.5
238	123588	59.51	-1.5
238	123796	59.61	-1.5
238	124000	59.71	-1.5
238	124202	59.81	-1.5
238	124398	59.91	-1.42922
238	124605	60.01	-0.0635706
238	124803	60.11	1.28626
238	125011	60.21	1.5
238	125213	60.31	1.5
238	125419	60.41	1.5
238	125621	60.51	1.5
238	125835	60.61	1.5
238	126041	60.71	1.5
238	126243	60.81	1.5
238	126447	60.91	1.5
238	126650	61.01	1.5
238	126850	61.11	1.5
238	127052	61.21	1.5
238	127250	61.31	1.5
238	127454	61.41	1.5
238	127654	61.51	1.5
238	127856	61.61	1.5
238	128062	61.71	1.5
238	128270	61.81	1.5
238	128466	61.91	1.5
238	128671	62.01	1.5
238	128869	62.11	1.5
238	129065	62.21	1.5
238	129267	62.31	0.533514
238	129471	62.41	-0.802365
238	129675	62.51	-1.5
238	129877	62.61	-1.5
238	130081	62.71	-1.5
238	130281	62.81	-1.5
238	130485	62.91	-1.5
238	130700	63.01	-1.5
238	130910	63.11	-1.5
238	131114	63.21	-1.5
238	131316	63.31	-1.5
238	131520	63.41	-1.5
238	131724	63.51	-1.5
238	131930	63.61	-1.5
238	132136	63.71	-1.5
238	132344	63.81	-1.5
238	132552	63.91	-1.5
238	132761	64.01	-1.5
238	132963	64.11	-1.5
238	133167	64.21	-1.5
238	133371	64.31	-1.5
238	133575	64.41	-1.5
238	133781	64.51	-1.5
238	133987	64.61	-1.5
238	134185	64.71	-1.5
238	134385	64.81	-1.5
238	134593	64.91	-0.936591
238	134800	65.01	0.423865
238	135002	65.11	1.5
238	135202	65.21	1.5
238	135408	65.31	1.5
238	135612	65.41	1.5
238	135814	65.51	1.5
238	136018	65.61	1.5
238	136222	65.71	1.5
238	136422	65.81	1.5
238	136626	65.91	1.5
238	136829	66.01	1.5
238	137035	66.11	1.5
238	137235	66.21	1.5
238	137441	66.31	1.5
238	137643	66.41	1.5
238	137851	66.51	1.5
238	138057	66.61	1.5
238	138265	66.71	1.5
238	138475	66.81	1.5
238	138675	66.91	1.5
238	138882	67.01	1.5
238	139094	67.11	1.5
238	139298	67.21	1.5
238	139510	67.31	0.912279
238	139710	67.41	-0.427673
238	139920	67.51	-1.5
238	140128	67.61	-1.5
238	140328	67.71	-1.5
238	140530	67.81	-1.5
238	140734	67.91	-1.5
238	140947	68.01	-1.5
238	141157	68.11	-1.5
238	141355	68.21	-1.5
238	141557	68.31	-1.5
238	141757	68.41	-1.5
238	141957	68.51	-1.5
238	142165	68.61	-1.5
238	142369	68.71	-1.5
238	142571	68.81	-1.5
238	142773	68.91	-1.5
238	142978	69.01	-1.5
238	143182	69.11	-1.5
238	143384	69.21	-1.5
238	143592	69.31	-1.5
238	143794	69.41	-1.5
238	144008	69.51	-1.5
238	144216	69.61	-1.5
238	144416	69.71	-1.5
238	144614	69.81	-1.5
238	144814	69.91	-0.633362
238	145025	70.01	0.723919
238	145231	70.11	1.5
238	145431	70.21	1.5
238	145637	70.31	1.5
238	145843	70.41	1.5
238	146045	70.51	1.5
238	146253	70.61	1.5
238	146465	70.71	1.5
238	146669	70.81	1.5
238	146871	70.91	1.5
238	147086	71.01	1.5
238	147286	71.11	1.5
238	147492	71.21	1.5
238	147696	71.31	1.5
238	147902	71.41	1.5
238	148110	71.51	1.5
238	148314	71.61	1.5
238	148514	71.71	1.5
238	148720	71.81	1.5
238	148924	71.91	1.5
238	149131	72.01	1.5
238	149335	72.11	1.5
238	149537	72.21	1.5
238	149737	72.31	1.1557
238	149937	72.41	-0.186836
238	150145	72.51	-1.5
238	150349	72.61	-1.5
238	150553	72.71	-1.5
238	150765	72.81	-1.5
238	150967	72.91	-1.5
238	151172	73.01	-1.5
238	151374	73.11	-1.5
238	151574	73.21	-1.5
238	151780	73.31	-1.5
238	151986	73.41	-1.5
238	152192	73.51	-1.5
238	152396	73.61	-1.5
238	152602	73.71	-1.5
238	152808	73.81	-1.5
238	153008	73.91	-1.5
238	153223	74.01	-1.5
238	153423	74.11	-1.5
238	153623	74.21	-1.5
238	153827	74.31	-1.5
238	154037	74.41	-1.5
238	154247	74.51	-1.5
238	154449	74.61	-1.5
238	154655	74.71	-1.5
238	154853	74.81	-1.5
238	155053	74.91	-0.438313
238	155262	75.01	0.916926
238	155464	75.11	1.5
238	155668	75.21	1.5
238	155870	75.31	1.5
238	156078	75.41	1.5
238	156280	75.51	1.5
238	156484	75.61	1.5
238	156690	75.71	1.5
238	156896	75.81	1.5
238	157100	75.91	1.5
238	157307	76.01	1.5
238	157509	76.11	1.5
238	157711	76.21	1.5
238	157911	76.31	1.5
238	158115	76.41	1.5
238	158315	76.51	1.5
238	158519	76.61	1.5
238	158727	76.71	1.5
238	158929	76.81	1.5
238	159135	76.91	1.5
238	159348	77.01	1.5
238	159552	77.11	1.5
238	159754	77.21	1.5
238	159964	77.31	1.31228
238	160164	77.41	-0.0319202
238	160370	77.51	-1.37805
238	160574	77.61	-1.5
238	160780	77.71	-1.5
238	160986	77.81	-1.5
238	161188	77.91	-1.5
238	161401	78.01	-1.5
238	161599	78.11	-1.5
238	161811	78.21	-1.5
238	162015	78.31	-1.5
238	162221	78.41	-1.5
238	162429	78.51	-1.5
238	162631	78.61	-1.5
238	162827	78.71	-1.5
238	163027	78.81	-1.5
238	163235	78.91	-1.5
238	163438	79.01	-1.5
238	163644	79.11	-1.5
238	163846	79.21	-1.5
238	164054	79.31	-1.5
238	164254	79.41	-1.5
238	164450	79.51	-1.5
238	164656	79.61	-1.5
238	164864	79.71	-1.5
238	165078	79.81	-1.5
238	165282	79.91	-0.320567
238	165485	80.01	1.03342
238	165685	80.11	1.5
238	165889	80.21	1.5
238	166091	80.31	1.5
238	166299	80.41	1.5
238	166505	80.51	1.5
238	166707	80.61	1.5
238	166915	80.71	1.5
238	167119	80.81	1.5
238	167327	80.91	1.5
238	167532	81.01	1.5
238	167738	81.11	1.5
238	167942	81.21	1.5
238	168150	81.31	1.5
238	168364	81.41	1.5
238	168566	81.51	1.5
238	168768	81.61	1.5
238	168968	81.71	1.5
238	169170	81.81	1.5
238	169370	81.91	1.5
238	169579	82.01	1.5
238	169783	82.11	1.5
238	169985	82.21	1.5
238	170189	82.31	1.40672
238	170391	82.41	0.0615169
238	170593	82.51	-1.28711
238	170803	82.61	-1.5
238	171013	82.71	-1.5
238	171217	82.81	-1.5
238	171421	82.91	-1.5
238	171628	83.01	-1.5
238	171830	83.11	-1.5
238	172030	83.21	-1.5
238	172234	83.31	-1.5
238	172438	83.41	-1.5
238	172638	83.51	-1.5
238	172842	83.61	-1.5
238	173050	83.71	-1.5
238	173250	83.81	-1.5
238	173454	83.91	-1.5
238	173663	84.01	-1.5
238	173869	84.11	-1.5
238	174077	84.21	-1.5
238	174277	84.31	-1.5
238	174489	84.41	-1.5
238	174697	84.51	-1.5
238	174901	84.61	-1.5
238	175107	84.71	-1.5
238	175305	84.81	-1.5
238	175507	84.91	-0.253762
238	175718	85.01	1.09942
238	175914	85.11	1.5
238	176114	85.21	1.5
238	176314	85.31	1.5
238	176518	85.41	1.5
238	176722	85.51	1.5
238	176922	85.61	1.5
238	177124	85.71	1.5
238	177338	85.81	1.5
238	177540	85.91	1.5
238	177753	86.01	1.5
238	177959	86.11	1.5
238	178159	86.21	1.5
238	178365	86.31	1.5
238	178565	86.41	1.5
238	178773	86.51	1.5
238	178977	86.61	1.5
238	179181	86.71	1.5
238	179381	86.81	1.5
238	179581	86.91	1.5
238	179794	87.01	1.5
238	179996	87.11	1.5
238	180200	87.21	1.5
238	180404	87.31	1.45977
238	180610	87.41	0.113999
238	180818	87.51	-1.23603
238	181020	87.61	-1.5
238	181224	87.71	-1.5
238	181436	87.81	-1.5
238	181642	87.91	-1.5
238	181857	88.01	-1.5
238	182061	88.11	-1.5
238	182263	88.21	-1.5
238	182467	88.31	-1.5
238	182669	88.41	-1.5
238	182875	88.51	-1.5
238	183075	88.61	-1.5
238	183283	88.71	-1.5
238	183483	88.81	-1.5
238	183683	88.91	-1.5
238	183894	89.01	-1.5
238	184092	89.11	-1.5
238	184298	89.21	-1.5
238	184498	89.31	-1.5
238	184702	89.41	-1.5
238	184902	89.51	-1.5
238	185110	89.61	-1.5
238	185316	89.71	-1.5
238	185522	89.81	-1.5
238	185720	89.91	-0.216308
238	185929	90.01	1.13622
238	186127	90.11	1.5
238	186331	90.21	1.5
238	186533	90.31	1.5
238	186739	90.41	1.5
238	186947	90.51	1.5
238	187153	90.61	1.5
238	187357	90.71	1.5
238	187559	90.81	1.5
238	187763	90.91	1.5
238	187974	91.01	1.5
238	188176	91.11	1.5
238	188376	91.21	1.5
238	188580	91.31	1.5
238	188784	91.41	1.5
238	188984	91.51	1.5
238	189190	91.61	1.5
238	189392	91.71	1.5
238	189590	91.81	1.5
238	189790	91.91	1.5
238	189995	92.01	1.5
238	190205	92.11	1.5
238	190409	92.21	1.5
238	190617	92.31	1.48842
238	190825	92.41	0.142348
238	191023	92.51	-1.20844
238	191227	92.61	-1.5
238	191429	92.71	-1.5
238	191629	92.81	-1.5
238	191831	92.91	-1.5
238	192044	93.01	-1.5
238	192250	93.11	-1.5
238	192458	93.21	-1.5
238	192658	93.31	-1.5
238	192860	93.41	-1.5
238	193064	93.51	-1.5
238	193268	93.61	-1.5
238	193470	93.71	-1.5
238	193670	93.81	-1.5
238	193868	93.91	-1.5
238	194077	94.01	-1.5
238	194283	94.11	-1.5
238	194481	94.21	-1.5
238	194685	94.31	-1.5
238	194893	94.41	-1.5
238	195095	94.51	-1.5
238	195299	94.61	-1.5
238	195499	94.71	-1.5
238	195701	94.81	-1.5
238	195903	94.91	-0.196125
238	196112	95.01	1.15599
238	196316	95.11	1.5
238	196524	95.21	1.5
238	196724	95.31	1.5
238	196928	95.41	1.5
238	197138	95.51	1.5
238	197342	95.61	1.5
238	197552	95.71	1.5
238	197756	95.81	1.5
238	197962	95.91	1.5
238	198167	96.01	1.5
238	198369	96.11	1.5
238	198573	96.21	1.5
238	198779	96.31	1.5
238	198987	96.41	1.5
238	199197	96.51	1.5
238	199405	96.61	1.5
238	199607	96.71	1.5
238	199813	96.81	1.5
238	200013	96.91	1.5
238	200218	97.01	1.5
238	200424	97.11	1.5
238	200640	97.21	1.5
238	200848	97.31	1.5
238	201052	97.41	0.1573
238	201260	97.51	-1.19389
238	201466	97.61	-1.5
238	201674	97.71	-1.5
238	201876	97.81	-1.5
238	202082	97.91	-1.5
238	202291	98.01	-1.5
238	202499	98.11	-1.5
238	202701	98.21	-1.5
238	202903	98.31	-1.5
238	203105	98.41	-1.5
238	203309	98.51	-1.5
238	203513	98.61	-1.5
238	203711	98.71	-1.5
238	203913	98.81	-1.5
238	204115	98.91	-1.5
238	204324	99.01	-1.5
238	204528	99.11	-1.5
238	204738	99.21	-1.5
238	204942	99.31	-1.5
238	205142	99.41	-1.5
238	205344	99.51	-1.5
238	205550	99.61	-1.5
238	205756	99.71	-1.5
238	205956	99.81	-1.5
238	206164	99.91	-0.185471
238	206369	100.01	1.1664
238	206576	100.11	1.26437
238	206777	100.21	1.32207
238	206976	100.31	1.34568
238	207171	100.41	1.34092
238	207368	100.51	1.31296
238	207567	100.61	1.26648
238	207766	100.71	1.20563
238	207971	100.81	1.13409
238	208174	100.91	1.05506
238	208378	101.01	0.971303
238	208581	101.11	0.885173
238	208784	101.21	0.798641
238	208989	101.31	0.71333
238	209196	101.41	0.630551
238	209405	101.51	0.551334
238	209602	101.61	0.47646
238	209807	101.71	0.406491
238	210006	101.81	0.341802
238	210205	101.91	0.282603
238	210413	102.01	0.228971
238	210618	102.11	0.180867
238	210817	102.21	0.138162
238	211018	102.31	0.10065
238	211221	102.41	0.0680721
238	211428	102.51	0.0401259
238	211633	102.61	0.0164807
238	211838	102.71	-0.0032123
238	212039	102.81	-0.0193098
238	212238	102.91	-0.032169
238	212442	103.01	-0.042141
238	212651	103.11	-0.0495657
238	212856	103.21	-0.0547675
238	213063	103.31	-0.0580526
238	213262	103.41	-0.0597062
238	213467	103.51	-0.0599919
238	213666	103.61	-0.0591502
238	213869	103.71	-0.0573989
238	214070	103.81	-0.0549327
238	214275	103.91	-0.0519242
238	214493	104.01	-0.048525
238	214692	104.11	-0.0448661
238	214893	104.21	-0.0410598
238	215100	104.31	-0.0372008
238	215303	104.41	-0.0333679
238	215506	104.51	-0.0296251
238	215707	104.61	-0.0260234
238	215910	104.71	-0.022602
238	216111	104.81	-0.0193898
238	216314	104.91	-0.0164069
238	216516	105.01	-0.0136657
238	216723	105.11	-0.0111718
238	216922	105.21	-0.00892556
238	217127	105.31	-0.00692278
238	217330	105.41	-0.00515563
238	217539	105.51	-0.00361349
238	217744	105.61	-0.00228358
238	217943	105.71	-0.00115163
238	218146	105.81	-0.00020239
238	218343	105.91	0.000579951
238	218553	106.01	0.00121134
238	218754	106.11	0.00170758
238	218961	106.21	0.00208403
238	219162	106.31	0.00235548
238	219359	106.41	0.00253591
238	219558	106.51	0.00263845
238	219761	106.61	0.00267524
238	219968	106.71	0.00265744
238	220167	106.81	0.00259517
238	220364	106.91	0.00249755
238	220570	107.01	0.00237266
238	220769	107.11	0.00222766
238	220966	107.21	0.00206875
238	221163	107.31	0.00190129
238	221366	107.41	0.0017298
238	221573	107.51	0.0015581
238	221776	107.61	0.0013893
238	221971	107.71	0.00122591
238	222176	107.81	0.00106989
238	222377	107.91	0.0009227
238	222583	108.01	0.000785407
238	222794	108.11	0.000658692
238	222995	108.21	0.000542928
238	223200	108.31	0.000438222
238	223407	108.41	0.000344468
238	223614	108.51	0.000261378
238	223813	108.61	0.000188528
238	224018	108.71	0.000125383
238	224225	108.81	7.13342e-05
238	224422	108.91	2.57156e-05
238	224630	109.01	-1.21687e-05
238	224835	109.11	-4.30288e-05
238	225034	109.21	-6.7573e-05
238	225233	109.31	-8.64959e-05
238	225436	109.41	-0.000100468
238	225637	109.51	-0.000110128
238	225836	109.61	-0.000116077
238	226037	109.71	-0.000118876
238	226242	109.81	-0.000119039
238	226439	109.91	-0.000117038
238	226653	110.01	-0.000113298
238	226862	110.11	-0.000108197
238	227061	110.21	-0.000102072
238	227268	110.31	-9.52168e-05
238	227471	110.41	-8.78853e-05
238	227674	110.51	-8.02945e-05
238	227873	110.61	-7.26274e-05
238	228076	110.71	-6.5035e-05
238	228283	110.81	-5.76401e-05
238	228486	110.91	-5.05399e-05
238	228694	111.01	-4.38088e-05
238	228895	111.11	-3.75012e-05
238	229100	111.21	-3.16541e-05
238	229307	111.31	-2.62898e-05
238	229514	111.41	-2.14176e-05
238	229717	111.51	-1.70366e-05
238	229920	111.61	-1.31371e-05
238	230125	111.71	-9.70247e-06
238	230334	111.81	-6.71088e-06
238	230539	111.91	-4.13637e-06
238	230753	112.01	-1.95019e-06
238	230958	112.11	-1.21777e-07
238	231159	112.21	1.38034e-06
238	231362	112.31	2.58784e-06
238	231575	112.41	3.532e-06
238	231782	112.51	4.24319e-06
238	231981	112.61	4.7505e-06
238	232184	112.71	5.08148e-06
238	232385	112.81	5.26185e-06
238	232592	112.91	5.31544e-06
238	232798	113.01	5.26407e-06
238	233003	113.11	5.12751e-06
238	233208	113.21	4.92351e-06
238	233413	113.31	4.66786e-06
238	233614	113.41	4.37442e-06
238	233819	113.51	4.05523e-06
238	234020	113.61	3.72065e-06
238	234231	113.71	3.37945e-06
238	234434	113.81	3.03893e-06
238	234641	113.91	2.70508e-06
238	234849	114.01	2.38269e-06
238	235062	114.11	2.07548e-06
238	235273	114.21	1.78623e-06
238	235472	114.31	1.51692e-06
238	235677	114.41	1.26877e-06
238	235880	114.51	1.04246e-06
238	236079	114.61	8.38097e-07
238	236286	114.71	6.5542e-07
238	236489	114.81	4.93806e-07
238	236696	114.91	3.5237e-07
238	236902	115.01	2.30022e-07
238	237103	115.11	1.25529e-07
238	237308	115.21	3.75568e-08
238	237511	115.31	-3.52848e-08
238	237712	115.41	-9.44073e-08
238	237911	115.51	-1.41215e-07
238	238116	115.61	-1.77081e-07
238	238313	115.71	-2.03327e-07
238	238516	115.81	-2.21212e-07
238	238723	115.91	-2.31916e-07
238	238929	116.01	-2.36537e-07
238	239130	116.11	-2.36086e-07
238	239335	116.21	-2.31481e-07
238	239540	116.31	-2.23552e-07
238	239751	116.41	-2.13037e-07
238	239954	116.51	-2.00591e-07
238	240155	116.61	-1.86783e-07
238	240360	116.71	-1.72105e-07
238	240565	116.81	-1.56977e-07
238	240768	116.91	-1.41752e-07
238	240976	117.01	-1.26719e-07
238	241175	117.11	-1.12114e-07
238	241374	117.21	-9.81228e-08
238	241579	117.31	-8.48843e-08
238	241782	117.41	-7.2502e-08
238	241989	117.51	-6.10438e-08
238	242194	117.61	-5.05491e-08
238	242391	117.71	-4.10331e-08
238	242598	117.81	-3.2491e-08
238	242799	117.91	-2.49003e-08
238	243015	118.01	-1.82268e-08
238	243216	118.11	-1.24256e-08
238	243423	118.21	-7.44365e-09
238	243630	118.31	-3.22302e-09
238	243833	118.41	2.97007e-10
238	244032	118.51	3.17932e-09
238	244229	118.61	5.48681e-09
238	244438	118.71	7.28164e-09
238	244641	118.81	8.62315e-09
238	244840	118.91	9.56888e-09
238	245048	119.01	1.01732e-08
238	245255	119.11	1.04865e-08
238	245456	119.21	1.05555e-08
238	245655	119.31	1.04226e-08
238	245852	119.41	1.0127e-08
238	246061	119.51	9.70246e-09
238	246262	119.61	9.18057e-09
238	246469	119.71	8.58726e-09
238	246676	119.81	7.94671e-09
238	246881	119.91	7.2788e-09
237	228	1.11	-0.000358191
237	366	1.21	-0.000681704
237	508	1.31	-0.00093487
237	648	1.41	-0.00112579
237	799	1.51	-0.00126221
237	939	1.61	-0.00135149
237	1079	1.71	-0.00140049
237	1218	1.81	-0.00141557
237	1358	1.91	-0.00140255
237	1504	2.01	-0.00136671
237	1644	2.11	-0.0013128
237	1780	2.21	-0.00124502
237	1926	2.31	-0.0011671
237	2064	2.41	-0.00108223
237	2204	2.51	-0.000993208
237	2346	2.61	-0.000902362
237	2486	2.71	-0.000811651
237	2624	2.81	-0.000722679
237	2768	2.91	-0.000636729
237	2911	3.01	-0.0005548
237	3076	3.11	-0.000477639
237	3281	3.21	-0.000405773
237	3482	3.31	-0.00033954
237	3681	3.41	-0.000279116
237	3888	3.51	-0.000224541
237	4087	3.61	-0.000175743
237	4284	3.71	-0.00013256
237	4490	3.81	-9.47571e-05
237	4697	3.91	-6.2046e-05
237	4905	4.01	-3.40986e-05
237	5110	4.11	-1.05605e-05
237	5317	4.21	8.93844e-06
237	5524	4.31	2.4774e-05
237	5727	4.41	3.73203e-05
237	5930	4.51	4.69433e-05
237	6127	4.61	5.39956e-05
237	6328	4.71	5.88124e-05
237	6531	4.81	6.1709e-05
237	6734	4.91	6.29785e-05
237	6944	5.01	6.28903e-05
237	7143	5.11	6.169e-05
237	7342	5.21	5.95988e-05
237	7549	5.31	5.68144e-05
237	7746	5.41	5.35112e-05
237	7949	5.51	4.98416e-05
237	8156	5.61	4.59373e-05
237	8359	5.71	4.19105e-05
237	8558	5.81	3.78555e-05
237	8761	5.91	3.38499e-05
237	8967	6.01	2.99569e-05
237	9170	6.11	2.62259e-05
237	9375	6.21	2.26948e-05
237	9578	6.31	1.93911e-05
237	9787	6.41	1.6333e-05
237	9996	6.51	1.35314e-05
237	10201	6.61	1.09904e-05
237	10406	6.71	8.70882e-06
237	10613	6.81	6.6809e-06
237	10820	6.91	4.89747e-06
237	11026	7.01	3.3466e-06
237	11231	7.11	2.01432e-06
237	11436	7.21	8.85256e-07
237	11633	7.31	-5.68459e-08
237	11834	7.41	-8.28678e-07
237	12039	7.51	-1.44699e-06
237	12242	7.61	-1.92826e-06
237	12443	7.71	-2.28849e-06
237	12644	7.81	-2.54296e-06
237	12841	7.91	-2.7061e-06
237	13047	8.01	-2.79139e-06
237	13246	8.11	-2.8113e-06
237	13455	8.21	-2.77721e-06
237	13656	8.31	-2.69943e-06
237	13859	8.41	-2.58721e-06
237	14058	8.51	-2.44874e-06
237	14265	8.61	-2.29123e-06
237	14470	8.71	-2.12092e-06
237	14667	8.81	-1.94317e-06
237	14868	8.91	-1.7625e-06
237	15074	9.01	-1.58267e-06
237	15277	9.11	-1.40677e-06
237	15486	9.21	-1.23723e-06
237	15695	9.31	-1.07596e-06
237	15904	9.41	-9.24364e-07
237	16107	9.51	-7.83424e-07
237	16304	9.61	-6.53753e-07
237	16509	9.71	-5.35652e-07
237	16706	9.81	-4.2916e-07
237	16915	9.91	-3.34103e-07
237	17121	10.01	-2.5013e-07
237	17318	10.11	-1.76757e-07
237	17515	10.21	-1.13395e-07
237	17724	10.31	-5.93825e-08
237	17925	10.41	-1.40084e-08
237	18130	10.51	2.34657e-08
237	18331	10.61	5.3787e-08
237	18530	10.71	7.76954e-08
237	18729	10.81	9.59155e-08
237	18934	10.91	1.09142e-07
237	19146	11.01	1.18035e-07
237	19343	11.11	1.23212e-07
237	19546	11.21	1.2525e-07
237	19747	11.31	1.24675e-07
237	19944	11.41	1.21968e-07
237	20151	11.51	1.17559e-07
237	20354	11.61	1.11834e-07
237	20555	11.71	1.05132e-07
237	20756	11.81	9.77476e-08
237	20959	11.91	8.99373e-08
237	21163	12.01	8.19171e-08
237	21364	12.11	7.38677e-08
237	21571	12.21	6.59401e-08
237	21776	12.31	5.82538e-08
237	21987	12.41	5.09036e-08
237	22186	12.51	4.39606e-08
237	22393	12.61	3.74765e-08
237	22592	12.71	3.14852e-08
237	22797	12.81	2.60055e-08
237	22996	12.91	2.10438e-08
237	23207	13.01	1.65958e-08
237	25170	13.11	1.26498e-08
237	25375	13.21	9.18554e-09
237	25576	13.31	6.17888e-09
237	25781	13.41	3.60174e-09
237	25980	13.51	1.42322e-09
237	26185	13.61	-3.90088e-10
237	26386	13.71	-1.8705e-09
237	26589	13.81	-3.05107e-09
237	26790	13.91	-3.96518e-09
237	26994	14.01	-4.64375e-09
237	27197	14.11	-5.11768e-09
237	27398	14.21	-5.41434e-09
237	27595	14.31	-5.56071e-09
237	27794	14.41	-5.58096e-09
237	27997	14.51	-5.49747e-09
237	28206	14.61	-5.33085e-09
237	28407	14.71	-5.09743e-09
237	28612	14.81	-4.81464e-09
237	28817	14.91	-4.49667e-09
237	29029	15.01	-4.15525e-09
237	29238	15.11	-3.80034e-09
237	29447	15.21	-3.44151e-09
237	29654	15.31	-3.08518e-09
237	29853	15.41	-2.73772e-09
237	30056	15.51	-2.40306e-09
237	30255	15.61	-2.08544e-09
237	30460	15.71	-1.78773e-09
237	30665	15.81	-1.51132e-09
237	30872	15.91	-1.25766e-09
237	31084	16.01	-1.02673e-09
237	31293	16.11	-8.18901e-10
237	31492	16.21	-6.33804e-10
237	31695	16.31	-4.70735e-10
237	31908	16.41	-3.28271e-10
237	32111	16.51	-2.05702e-10
237	32312	16.61	-1.00897e-10
237	32513	16.71	-1.35003e-11
237	32718	16.81	5.82645e-11
237	32927	16.91	1.16174e-10
237	33135	17.01	1.61648e-10
237	33340	17.11	1.95755e-10
237	33541	17.21	2.20624e-10
237	33748	17.31	2.36966e-10
237	33957	17.41	2.45848e-10
237	34158	17.51	2.4869e-10
237	34359	17.61	2.46914e-10
237	34560	17.71	2.40874e-10
237	34771	17.81	2.31282e-10
237	34980	17.91	2.19913e-10
237	35190	18.01	2.05702e-10
237	35395	18.11	1.91491e-10
237	35606	18.21	1.7657e-10
237	35805	18.31	1.59872e-10
237	36014	18.41	1.44595e-10
237	36211	18.51	1.30385e-10
237	36410	18.61	1.16174e-10
237	36621	18.71	1.01963e-10
237	36830	18.81	8.7752e-11
237	37041	18.91	7.35412e-11
237	37247	19.01	6.21725e-11
237	37450	19.11	5.15143e-11
237	37649	19.21	4.08562e-11
237	37850	19.31	3.16192e-11
237	38053	19.41	2.45137e-11
237	38252	19.51	1.74083e-11
237	38455	19.61	1.03029e-11
237	38664	19.71	6.03961e-12
237	38869	19.81	2.4869e-12
237	39074	19.91	-1.06581e-12
237	39280	20.01	-4.61853e-12
237	39483	20.11	-8.17124e-12
237	39692	20.21	-8.88178e-12
237	39891	20.31	-8.88178e-12
237	40092	20.41	-8.88178e-12
237	40297	20.51	-8.88178e-12
237	40500	20.61	-8.88178e-12
237	40709	20.71	-8.88178e-12
237	40910	20.81	-8.88178e-12
237	41111	20.91	-8.88178e-12
237	41325	21.01	-8.88178e-12
237	41532	21.11	-8.88178e-12
237	41731	21.21	-8.88178e-12
237	41930	21.31	-8.88178e-12
237	42137	21.41	-8.88178e-12
237	42342	21.51	-8.88178e-12
237	42539	21.61	-8.88178e-12
237	42736	21.71	-8.88178e-12
237	42937	21.81	-8.88178e-12
237	43144	21.91	-8.88178e-12
237	43360	22.01	-8.88178e-12
237	43565	22.11	-8.88178e-12
237	43774	22.21	-8.17124e-12
237	43971	22.31	-7.4607e-12
237	44166	22.41	-6.75016e-12
237	44369	22.51	-6.03961e-12
237	44570	22.61	-5.68434e-12
237	44771	22.71	-4.9738e-12
237	44970	22.81	-4.61853e-12
237	45171	22.91	-4.26326e-12
237	45381	23.01	-3.55271e-12
237	45584	23.11	-3.19744e-12
237	45783	23.21	-3.19744e-12
237	45982	23.31	-2.84217e-12
237	46183	23.41	-2.4869e-12
237	46388	23.51	-2.13163e-12
237	46591	23.61	-2.13163e-12
237	46798	23.71	-1.77636e-12
237	47007	23.81	-1.77636e-12
237	47208	23.91	-1.42109e-12
237	47418	24.01	-1.42109e-12
237	47619	24.11	-1.06581e-12
237	47826	24.21	-1.06581e-12
237	48037	24.31	-1.06581e-12
237	48242	24.41	-1.06581e-12
237	48447	24.51	-7.10543e-13
237	48648	24.61	-7.10543e-13
237	48847	24.71	-7.10543e-13
237	49048	24.81	-7.10543e-13
237	49251	24.91	-7.10543e-13
237	49461	25.01	-3.55271e-13
237	49662	25.11	-3.55271e-13
237	49861	25.21	-3.55271e-13
237	50068	25.31	-3.55271e-13
237	50269	25.41	-3.55271e-13
237	50470	25.51	-3.55271e-13
237	50673	25.61	-3.55271e-13
237	50872	25.71	-3.55271e-13
237	51077	25.81	-3.55271e-13
237	51276	25.91	-3.55271e-13
237	51480	26.01	0
237	51685	26.11	0
237	51888	26.21	0
237	52091	26.31	0
237	52296	26.41	0
237	52499	26.51	0
237	52702	26.61	0
237	52903	26.71	0
237	53106	26.81	0
237	53305	26.91	0
237	53511	27.01	0
237	53714	27.11	0
237	53913	27.21	0
237	54120	27.31	0
237	54325	27.41	0
237	54524	27.51	0
237	54727	27.61	0
237	54932	27.71	0
237	55137	27.81	0
237	55344	27.91	0
237	55550	28.01	0
237	55749	28.11	0
237	55954	28.21	0
237	56157	28.31	0
237	56362	28.41	0
237	56567	28.51	0
237	56764	28.61	0
237	56967	28.71	0
237	57176	28.81	0
237	57377	28.91	0
237	57585	29.01	0
237	57794	29.11	0
237	57991	29.21	0
237	58192	29.31	0
237	58395	29.41	0
237	58604	29.51	0
237	58803	29.61	0
237	59002	29.71	0
237	59205	29.81	0
237	59412	29.91	0
237	59622	30.01	0
237	59825	30.11	0
237	60030	30.21	0
237	60229	30.31	0
237	60430	30.41	0
237	60627	30.51	0
237	60832	30.61	0
237	61029	30.71	0
237	61240	30.81	0
237	61443	30.91	0
237	61649	31.01	0
237	61846	31.11	0
237	62061	31.21	0
237	62268	31.31	0
237	62475	31.41	0
237	62680	31.51	0
237	62887	31.61	0
237	63094	31.71	0
237	63295	31.81	0
237	63494	31.91	0
237	63698	32.01	0
237	63901	32.11	0
237	64108	32.21	0
237	64317	32.31	0
237	64516	32.41	0
237	64715	32.51	0
237	64920	32.61	0
237	65117	32.71	0
237	65322	32.81	0
237	65527	32.91	0
237	65737	33.01	0
237	65942	33.11	0
237	66141	33.21	0
237	66340	33.31	0
237	66543	33.41	0
237	66756	33.51	0
237	66963	33.61	0
237	67172	33.71	0
237	67369	33.81	0
237	67570	33.91	0
237	67772	34.01	0
237	67973	34.11	0
237	68180	34.21	0
237	68383	34.31	0
237	68596	34.41	0
237	68803	34.51	0
237	69004	34.61	0
237	69211	34.71	0
237	69412	34.81	0
237	69613	34.91	0
237	69825	35.01	0
237	70024	35.11	0
237	70225	35.21	0
237	70424	35.31	0
237	70627	35.41	0
237	70824	35.51	0
237	71031	35.61	0
237	71234	35.71	0
237	71433	35.81	0
237	71636	35.91	0
237	71842	36.01	0
237	72043	36.11	0
237	72252	36.21	0
237	72453	36.31	0
237	72660	36.41	0
237	72855	36.51	0
237	73056	36.61	0
237	73263	36.71	0
237	73466	36.81	0
237	73667	36.91	0
237	73877	37.01	0
237	74078	37.11	0
237	74285	37.21	0
237	74490	37.31	0
237	74693	37.41	0
237	74894	37.51	0
237	75089	37.61	0
237	75288	37.71	0
237	75491	37.81	0
237	75692	37.91	0
237	75898	38.01	0
237	76103	38.11	0
237	76308	38.21	0
237	76509	38.31	0
237	76708	38.41	0
237	76905	38.51	0
237	77108	38.61	0
237	77309	38.71	0
237	77506	38.81	0
237	77715	38.91	0
237	77921	39.01	0
237	78118	39.11	0
237	78321	39.21	0
237	78526	39.31	0
237	78725	39.41	0
237	78928	39.51	0
237	79131	39.61	0
237	79334	39.71	0
237	79539	39.81	0
237	79746	39.91	0
237	79950	40.01	0
237	80149	40.11	0
237	80350	40.21	0
237	80553	40.31	0
237	80756	40.41	0
237	80963	40.51	0
237	81164	40.61	0
237	81369	40.71	0
237	81574	40.81	0
237	81775	40.91	0
237	81979	41.01	0
237	82178	41.11	0
237	82381	41.21	0
237	82586	41.31	0
237	82791	41.41	0
237	82996	41.51	0
237	83199	41.61	0
237	83408	41.71	0
237	83607	41.81	0
237	83812	41.91	0
237	84020	42.01	0
237	84221	42.11	0
237	84422	42.21	0
237	84619	42.31	0
237	84818	42.41	0
237	85019	42.51	0
237	85222	42.61	0
237	85421	42.71	0
237	85626	42.81	0
237	85833	42.91	0
237	86037	43.01	0
237	86240	43.11	0
237	86675	43.21	0
237	90540	43.31	0
237	90741	43.41	0
237	90942	43.51	0
237	91145	43.61	0
237	91352	43.71	0
237	91561	43.81	0
237	91764	43.91	0
237	91974	44.01	0
237	92181	44.11	0
237	92386	44.21	0
237	92587	44.31	0
237	92792	44.41	0
237	93001	44.51	0
237	93204	44.61	0
237	93409	44.71	0
237	93616	44.81	0
237	93821	44.91	0
237	94037	45.01	0
237	94238	45.11	0
237	94443	45.21	0
237	94646	45.31	0
237	94859	45.41	0
237	95062	45.51	0
237	95267	45.61	0
237	95472	45.71	0
237	95679	45.81	0
237	95884	45.91	0
237	96092	46.01	0
237	96295	46.11	0
237	96498	46.21	0
237	96699	46.31	0
237	96904	46.41	0
237	97107	46.51	0
237	97308	46.61	0
237	97511	46.71	0
237	97714	46.81	0
237	97915	46.91	0
237	98127	47.01	0
237	98334	47.11	0
237	98535	47.21	0
237	98730	47.31	0
237	98933	47.41	0
237	99136	47.51	0
237	99341	47.61	0
237	99544	47.71	0
237	99751	47.81	0
237	99954	47.91	0
237	100162	48.01	0
237	100369	48.11	0
237	100576	48.21	0
237	100779	48.31	0
237	100984	48.41	0
237	101189	48.51	0
237	101386	48.61	0
237	101585	48.71	0
237	101784	48.81	0
237	101983	48.91	0
237	102193	49.01	0
237	102402	49.11	0
237	102609	49.21	0
237	102812	49.31	0
237	103021	49.41	0
237	103218	49.51	0
237	103425	49.61	0
237	103628	49.71	0
237	103827	49.81	0
237	104028	49.91	0
237	104232	50.01	0
237	104435	50.11	0
237	104638	50.21	0
237	104837	50.31	0
237	105046	50.41	0
237	105243	50.51	0
237	105444	50.61	0
237	105643	50.71	0
237	105848	50.81	0
237	106057	50.91	0
237	106265	51.01	0
237	106462	51.11	0
237	106665	51.21	0
237	106862	51.31	0
237	107063	51.41	0
237	107260	51.51	0
237	107461	51.61	0
237	107662	51.71	0
237	107865	51.81	0
237	108070	51.91	0
237	108278	52.01	0
237	108481	52.11	0
237	108684	52.21	0
237	108887	52.31	0
237	109086	52.41	0
237	109281	52.51	0
237	109478	52.61	0
237	109681	52.71	0
237	109886	52.81	0
237	110087	52.91	0
237	110289	53.01	0
237	110492	53.11	0
237	110699	53.21	0
237	110902	53.31	0
237	111109	53.41	0
237	111310	53.51	0
237	111511	53.61	0
237	111712	53.71	0
237	111921	53.81	0
237	112124	53.91	0
237	112334	54.01	0
237	112537	54.11	0
237	112736	54.21	0
237	112943	54.31	0
237	113146	54.41	0
237	113351	54.51	0
237	113548	54.61	0
237	113747	54.71	0
237	113948	54.81	0
237	114149	54.91	0
237	114356	55.01	0
237	114554	55.11	0.0238922
237	114762	55.21	0.243325
237	114970	55.31	0.469089
237	115180	55.41	0.654294
237	115386	55.51	0.806226
237	115586	55.61	0.930864
237	115788	55.71	1.03311
237	116000	55.81	1.11699
237	116206	55.91	1.1858
237	116415	56.01	1.24224
237	116619	56.11	1.28855
237	116827	56.21	1.32654
237	117029	56.31	1.3577
237	117237	56.41	1.38326
237	117439	56.51	1.40424
237	117649	56.61	1.42144
237	117851	56.71	1.43555
237	118057	56.81	1.44713
237	118257	56.91	1.45663
237	118468	57.01	1.46442
237	118674	57.11	1.47081
237	118880	57.21	1.47008
237	119088	57.31	1.38318
237	119296	57.41	1.07822
237	119500	57.51	0.618113
237	119706	57.61	0.237591
237	119910	57.71	-0.0745705
237	120108	57.81	-0.330651
237	120312	57.91	-0.540727
237	120521	58.01	-0.713062
237	120723	58.11	-0.854437
237	120925	58.21	-0.970413
237	121129	58.31	-1.06555
237	121339	58.41	-1.1436
237	121543	58.51	-1.20763
237	121745	58.61	-1.26016
237	121951	58.71	-1.30324
237	122149	58.81	-1.33859
237	122355	58.91	-1.36759
237	122568	59.01	-1.39138
237	122770	59.11	-1.41089
237	122976	59.21	-1.4269
237	123178	59.31	-1.44003
237	123376	59.41	-1.45081
237	123588	59.51	-1.45964
237	123796	59.61	-1.46689
237	124000	59.71	-1.47284
237	124202	59.81	-1.47772
237	124398	59.91	-1.48033
237	124605	60.01	-1.43225
237	124803	60.11	-1.14873
237	125011	60.21	-0.698697
237	125213	60.31	-0.303697
237	125419	60.41	0.0203402
237	125621	60.51	0.286164
237	125835	60.61	0.504231
237	126041	60.71	0.683123
237	126243	60.81	0.829876
237	126447	60.91	0.950265
237	126650	61.01	1.04903
237	126850	61.11	1.13004
237	127052	61.21	1.19651
237	127250	61.31	1.25103
237	127454	61.41	1.29576
237	127654	61.51	1.33245
237	127856	61.61	1.36255
237	128062	61.71	1.38724
237	128270	61.81	1.4075
237	128466	61.91	1.42412
237	128671	62.01	1.43775
237	128869	62.11	1.44893
237	129065	62.21	1.45811
237	129267	62.31	1.44668
237	129471	62.41	1.24496
237	129675	62.51	0.854127
237	129877	62.61	0.431204
237	130081	62.71	0.0842598
237	130281	62.81	-0.200355
237	130485	62.91	-0.433839
237	130700	63.01	-0.625376
237	130910	63.11	-0.782504
237	131114	63.21	-0.911403
237	131316	63.31	-1.01715
237	131520	63.41	-1.10389
237	131724	63.51	-1.17505
237	131930	63.61	-1.23343
237	132136	63.71	-1.28132
237	132344	63.81	-1.32061
237	132552	63.91	-1.35283
237	132761	64.01	-1.37927
237	132963	64.11	-1.40096
237	133167	64.21	-1.41875
237	133371	64.31	-1.43335
237	133575	64.41	-1.44532
237	133781	64.51	-1.45515
237	133987	64.61	-1.4632
237	134185	64.71	-1.46981
237	134385	64.81	-1.47524
237	134593	64.91	-1.46864
237	134800	65.01	-1.33456
237	135002	65.11	-0.987352
237	135202	65.21	-0.540495
237	135408	65.31	-0.173916
237	135612	65.41	0.126806
237	135814	65.51	0.373502
237	136018	65.61	0.57588
237	136222	65.71	0.741899
237	136422	65.81	0.878093
237	136626	65.91	0.98982
237	136829	66.01	1.08147
237	137035	66.11	1.15666
237	137235	66.21	1.21834
237	137441	66.31	1.26894
237	137643	66.41	1.31045
237	137851	66.51	1.34451
237	138057	66.61	1.37244
237	138265	66.71	1.39536
237	138475	66.81	1.41416
237	138675	66.91	1.42958
237	138882	67.01	1.44223
237	139094	67.11	1.45261
237	139298	67.21	1.46112
237	139510	67.31	1.45658
237	139710	67.41	1.32081
237	139920	67.51	0.975569
237	140128	67.61	0.530829
237	140328	67.71	0.165987
237	140530	67.81	-0.13331
237	140734	67.91	-0.378838
237	140947	68.01	-0.580257
237	141157	68.11	-0.74549
237	141355	68.21	-0.881039
237	141557	68.31	-0.992237
237	141757	68.41	-1.08346
237	141957	68.51	-1.15829
237	142165	68.61	-1.21968
237	142369	68.71	-1.27004
237	142571	68.81	-1.31135
237	142773	68.91	-1.34524
237	142978	69.01	-1.37305
237	143182	69.11	-1.39585
237	143384	69.21	-1.41456
237	143592	69.31	-1.42991
237	143794	69.41	-1.4425
237	144008	69.51	-1.45283
237	144216	69.61	-1.46131
237	144416	69.71	-1.46826
237	144614	69.81	-1.47396
237	144814	69.91	-1.46165
237	145025	70.01	-1.27459
237	145231	70.11	-0.890728
237	145431	70.21	-0.46123
237	145637	70.31	-0.108891
237	145843	70.41	0.180149
237	146045	70.51	0.417262
237	146253	70.61	0.611778
237	146465	70.71	0.771349
237	146669	70.81	0.902252
237	146871	70.91	1.00964
237	147086	71.01	1.09773
237	147286	71.11	1.17
237	147492	71.21	1.22929
237	147696	71.31	1.27792
237	147902	71.41	1.31782
237	148110	71.51	1.35055
237	148314	71.61	1.3774
237	148514	71.71	1.39942
237	148720	71.81	1.41749
237	148924	71.91	1.43231
237	149131	72.01	1.44447
237	149335	72.11	1.45445
237	149537	72.21	1.46263
237	149737	72.31	1.46259
237	149937	72.41	1.36927
237	150145	72.51	1.05339
237	150349	72.61	0.59467
237	150553	72.71	0.218359
237	150765	72.81	-0.090347
237	150967	72.91	-0.343594
237	151172	73.01	-0.551344
237	151374	73.11	-0.721772
237	151574	73.21	-0.861582
237	151780	73.31	-0.976275
237	151986	73.41	-1.07036
237	152192	73.51	-1.14755
237	152396	73.61	-1.21087
237	152602	73.71	-1.26281
237	152808	73.81	-1.30542
237	153008	73.91	-1.34038
237	153223	74.01	-1.36905
237	153423	74.11	-1.39258
237	153623	74.21	-1.41188
237	153827	74.31	-1.42771
237	154037	74.41	-1.4407
237	154247	74.51	-1.45135
237	154449	74.61	-1.46009
237	154655	74.71	-1.46726
237	154853	74.81	-1.47314
237	155053	74.91	-1.45715
237	155262	75.01	-1.23602
237	155464	75.11	-0.828578
237	155668	75.21	-0.410245
237	155870	75.31	-0.0670659
237	156078	75.41	0.21446
237	156280	75.51	0.44541
237	156484	75.61	0.634869
237	156690	75.71	0.790291
237	156896	75.81	0.917791
237	157100	75.91	1.02239
237	157307	76.01	1.10819
237	157509	76.11	1.17858
237	157711	76.21	1.23632
237	157911	76.31	1.28369
237	158115	76.41	1.32255
237	158315	76.51	1.35443
237	158519	76.61	1.38058
237	158727	76.71	1.40204
237	158929	76.81	1.41964
237	159135	76.91	1.43407
237	159348	77.01	1.44592
237	159552	77.11	1.45563
237	159754	77.21	1.4636
237	159964	77.31	1.46646
237	160164	77.41	1.40044
237	160370	77.51	1.10584
237	160574	77.61	0.649194
237	160780	77.71	0.263087
237	160986	77.81	-0.0536542
237	161188	77.91	-0.313493
237	161401	78.01	-0.526651
237	161599	78.11	-0.701515
237	161811	78.21	-0.844964
237	162015	78.31	-0.962642
237	162221	78.41	-1.05918
237	162429	78.51	-1.13837
237	162631	78.61	-1.20334
237	162827	78.71	-1.25664
237	163027	78.81	-1.30036
237	163235	78.91	-1.33622
237	163438	79.01	-1.36565
237	163644	79.11	-1.38978
237	163846	79.21	-1.40958
237	164054	79.31	-1.42583
237	164254	79.41	-1.43915
237	164450	79.51	-1.45008
237	164656	79.61	-1.45905
237	164864	79.71	-1.46641
237	165078	79.81	-1.47244
237	165282	79.91	-1.45427
237	165485	80.01	-1.2126
237	165685	80.11	-0.790951
237	165889	80.21	-0.379378
237	166091	80.31	-0.0417442
237	166299	80.41	0.235233
237	166505	80.51	0.46245
237	166707	80.61	0.648848
237	166915	80.71	0.801759
237	167119	80.81	0.927199
237	167327	80.91	1.0301
237	167532	81.01	1.11452
237	167738	81.11	1.18377
237	167942	81.21	1.24058
237	168150	81.31	1.28719
237	168364	81.41	1.32542
237	168566	81.51	1.35678
237	168768	81.61	1.38251
237	168968	81.71	1.40362
237	169170	81.81	1.42093
237	169370	81.91	1.43514
237	169579	82.01	1.44679
237	169783	82.11	1.45635
237	169985	82.21	1.46419
237	170189	82.31	1.4688
237	170391	82.41	1.41925
237	170593	82.51	1.13782
237	170803	82.61	0.689693
237	171013	82.71	0.296311
237	171217	82.81	-0.0263994
237	171421	82.91	-0.291134
237	171628	83.01	-0.508309
237	171830	83.11	-0.686468
237	172030	83.21	-0.83262
237	172234	83.31	-0.952516
237	172438	83.41	-1.05087
237	172638	83.51	-1.13156
237	172842	83.61	-1.19775
237	173050	83.71	-1.25205
237	173250	83.81	-1.29659
237	173454	83.91	-1.33314
237	173663	84.01	-1.36311
237	173869	84.11	-1.38771
237	174077	84.21	-1.40788
237	174277	84.31	-1.42443
237	174489	84.41	-1.43801
237	174697	84.51	-1.44914
237	174901	84.61	-1.45828
237	175107	84.71	-1.46577
237	175305	84.81	-1.47192
237	175507	84.91	-1.45153
237	175718	85.01	-1.19842
237	175914	85.11	-0.768896
237	176114	85.21	-0.361285
237	176314	85.31	-0.0269018
237	176518	85.41	0.247409
237	176722	85.51	0.472439
237	176922	85.61	0.657042
237	177124	85.71	0.808481
237	177338	85.81	0.932713
237	177540	85.91	1.03463
237	177753	86.01	1.11823
237	177959	86.11	1.18682
237	178159	86.21	1.24308
237	178365	86.31	1.28924
237	178565	86.41	1.3271
237	178773	86.51	1.35816
237	178977	86.61	1.38364
237	179181	86.71	1.40455
237	179381	86.81	1.4217
237	179581	86.91	1.43576
237	179794	87.01	1.4473
237	179996	87.11	1.45677
237	180200	87.21	1.46454
237	180404	87.31	1.47012
237	180610	87.41	1.42982
237	180818	87.51	1.15579
237	181020	87.61	0.712447
237	181224	87.71	0.314977
237	181436	87.81	-0.0110868
237	181642	87.91	-0.278573
237	181857	88.01	-0.498004
237	182061	88.11	-0.678014
237	182263	88.21	-0.825685
237	182467	88.31	-0.946827
237	182669	88.41	-1.04621
237	182875	88.51	-1.12773
237	183075	88.61	-1.19461
237	183283	88.71	-1.24947
237	183483	88.81	-1.29448
237	183683	88.91	-1.3314
237	183894	89.01	-1.36169
237	184092	89.11	-1.38654
237	184298	89.21	-1.40692
237	184498	89.31	-1.42364
237	184702	89.41	-1.43736
237	184902	89.51	-1.44861
237	185110	89.61	-1.45785
237	185316	89.71	-1.46542
237	185522	89.81	-1.47163
237	185720	89.91	-1.44779
237	185929	90.01	-1.18868
237	186127	90.11	-0.755104
237	186331	90.21	-0.349971
237	186533	90.31	-0.0176207
237	186739	90.41	0.255022
237	186947	90.51	0.478685
237	187153	90.61	0.662166
237	187357	90.71	0.812684
237	187559	90.81	0.936162
237	187763	90.91	1.03746
237	187974	91.01	1.12055
237	188176	91.11	1.18872
237	188376	91.21	1.24464
237	188580	91.31	1.29052
237	188784	91.41	1.32815
237	188984	91.51	1.35902
237	189190	91.61	1.38435
237	189392	91.71	1.40513
237	189590	91.81	1.42217
237	189790	91.91	1.43615
237	189995	92.01	1.44762
237	190205	92.11	1.45703
237	190409	92.21	1.46475
237	190617	92.31	1.47086
237	190825	92.41	1.43555
237	191023	92.51	1.16551
237	191227	92.61	0.724751
237	191429	92.71	0.325071
237	191629	92.81	-0.00280644
237	191831	92.91	-0.27178
237	192044	93.01	-0.492432
237	192250	93.11	-0.673443
237	192458	93.21	-0.821935
237	192658	93.31	-0.943751
237	192860	93.41	-1.04368
237	193064	93.51	-1.12566
237	193268	93.61	-1.19291
237	193470	93.71	-1.24808
237	193670	93.81	-1.29334
237	193868	93.91	-1.33047
237	194077	94.01	-1.36092
237	194283	94.11	-1.38591
237	194481	94.21	-1.4064
237	194685	94.31	-1.42322
237	194893	94.41	-1.43701
237	195095	94.51	-1.44833
237	195299	94.61	-1.45761
237	195499	94.71	-1.46523
237	195701	94.81	-1.47147
237	195903	94.91	-1.44508
237	196112	95.01	-1.18287
237	196316	95.11	-0.747231
237	196524	95.21	-0.343512
237	196724	95.31	-0.0123218
237	196928	95.41	0.259369
237	197138	95.51	0.482251
237	197342	95.61	0.665091
237	197552	95.71	0.815084
237	197756	95.81	0.93813
237	197962	95.91	1.03907
237	198167	96.01	1.12188
237	198369	96.11	1.18981
237	198573	96.21	1.24553
237	198779	96.31	1.29125
237	198987	96.41	1.32875
237	199197	96.51	1.35952
237	199405	96.61	1.38476
237	199607	96.71	1.40546
237	199813	96.81	1.42244
237	200013	96.91	1.43638
237	200218	97.01	1.44781
237	200424	97.11	1.45718
237	200640	97.21	1.46488
237	200848	97.31	1.47119
237	201052	97.41	1.43852
237	201260	97.51	1.1706
237	201466	97.61	0.731207
237	201674	97.71	0.330367
237	201876	97.81	0.00153841
237	202082	97.91	-0.268216
237	202291	98.01	-0.489508
237	202499	98.11	-0.671044
237	202701	98.21	-0.819968
237	202903	98.31	-0.942137
237	203105	98.41	-1.04236
237	203309	98.51	-1.12457
237	203513	98.61	-1.19202
237	203711	98.71	-1.24735
237	203913	98.81	-1.29274
237	204115	98.91	-1.32997
237	204324	99.01	-1.36052
237	204528	99.11	-1.38558
237	204738	99.21	-1.40613
237	204942	99.31	-1.423
237	205142	99.41	-1.43683
237	205344	99.51	-1.44818
237	205550	99.61	-1.45749
237	205756	99.71	-1.46513
237	205956	99.81	-1.47139
237	206164	99.91	-1.44345
237	206369	100.01	-1.17964
237	206576	100.11	-0.747561
237	206777	100.21	-0.379701
237	206976	100.31	-0.0711165
237	207171	100.41	0.183306
237	207368	100.51	0.388732
237	207567	100.61	0.550282
237	207766	100.71	0.672939
237	207971	100.81	0.761491
237	208174	100.91	0.820476
237	208378	101.01	0.854148
237	208581	101.11	0.866452
237	208784	101.21	0.861004
237	208989	101.31	0.841092
237	209196	101.41	0.809672
237	209405	101.51	0.769374
237	209602	101.61	0.722517
237	209807	101.71	0.671118
237	210006	101.81	0.616917
237	210205	101.91	0.561387
237	210413	102.01	0.505765
237	210618	102.11	0.451064
237	210817	102.21	0.3981
237	211018	102.31	0.347511
237	211221	102.41	0.299777
237	211428	102.51	0.255242
237	211633	102.61	0.21413
237	211838	102.71	0.176563
237	212039	102.81	0.142578
237	212238	102.91	0.112141
237	212442	103.01	0.0851615
237	212651	103.11	0.0615011
237	212856	103.21	0.0409882
237	213063	103.31	0.0234254
237	213262	103.41	0.00859754
237	213467	103.51	-0.00372063
237	213666	103.61	-0.0137591
237	213869	103.71	-0.0217473
237	214070	103.81	-0.0279104
237	214275	103.91	-0.0324657
237	214493	104.01	-0.0356203
237	214692	104.11	-0.0375693
237	214893	104.21	-0.0384944
237	215100	104.31	-0.0385628
237	215303	104.41	-0.0379272
237	215506	104.51	-0.0367256
237	215707	104.61	-0.0350812
237	215910	104.71	-0.0331029
237	216111	104.81	-0.0308864
237	216314	104.91	-0.028514
237	216516	105.01	-0.0260565
237	216723	105.11	-0.0235731
237	216922	105.21	-0.021113
237	217127	105.31	-0.0187162
237	217330	105.41	-0.0164143
237	217539	105.51	-0.0142316
237	217744	105.61	-0.0121857
237	217943	105.71	-0.0102888
237	218146	105.81	-0.00854817
237	218343	105.91	-0.00696691
237	218553	106.01	-0.00554477
237	218754	106.11	-0.00427866
237	218961	106.21	-0.00316328
237	219162	106.31	-0.00219154
237	219359	106.41	-0.00135507
237	219558	106.51	-0.000644563
237	219761	106.61	-5.01418e-05
237	219968	106.71	0.00043839
237	220167	106.81	0.000831293
237	220364	106.91	0.0011387
237	220570	107.01	0.00137046
237	220769	107.11	0.001536
237	220966	107.21	0.00164425
237	221163	107.31	0.00170357
237	221366	107.41	0.00172167
237	221573	107.51	0.00170564
237	221776	107.61	0.0016619
237	221971	107.71	0.00159621
237	222176	107.81	0.00151369
237	222377	107.91	0.00141885
237	222583	108.01	0.00131559
237	222794	108.11	0.00120729
237	222995	108.21	0.0010968
237	223200	108.31	0.000986478
237	223407	108.41	0.000878285
237	223614	108.51	0.000773777
237	223813	108.61	0.000674165
237	224018	108.71	0.000580357
237	224225	108.81	0.000492993
237	224422	108.91	0.000412481
237	224630	109.01	0.000339035
237	224835	109.11	0.000272703
237	225034	109.21	0.000213397
237	225233	109.31	0.000160918
237	225436	109.41	0.00011498
237	225637	109.51	7.52329e-05
237	225836	109.61	4.12771e-05
237	226037	109.71	1.26812e-05
237	226242	109.81	-1.10049e-05
237	226439	109.91	-3.02384e-05
237	226653	110.01	-4.54741e-05
237	226862	110.11	-5.71572e-05
237	227061	110.21	-6.57162e-05
237	227268	110.31	-7.15588e-05
237	227471	110.41	-7.50684e-05
237	227674	110.51	-7.6601e-05
237	227873	110.61	-7.64844e-05
237	228076	110.71	-7.5017e-05
237	228283	110.81	-7.24676e-05
237	228486	110.91	-6.90765e-05
237	228694	111.01	-6.50557e-05
237	228895	111.11	-6.05904e-05
237	229100	111.21	-5.58405e-05
237	229307	111.31	-5.09424e-05
237	229514	111.41	-4.60106e-05
237	229717	111.51	-4.11396e-05
237	229920	111.61	-3.64057e-05
237	230125	111.71	-3.18694e-05
237	230334	111.81	-2.75764e-05
237	230539	111.91	-2.356e-05
237	230753	112.01	-1.98426e-05
237	230958	112.11	-1.64372e-05
237	231159	112.21	-1.33487e-05
237	231362	112.31	-1.05757e-05
237	231575	112.41	-8.11112e-06
237	231782	112.51	-5.94386e-06
237	231981	112.61	-4.05934e-06
237	232184	112.71	-2.44057e-06
237	232385	112.81	-1.06884e-06
237	232592	112.91	7.56209e-08
237	232798	113.01	1.01312e-06
237	233003	113.11	1.76403e-06
237	233208	113.21	2.3484e-06
237	233413	113.31	2.78566e-06
237	233614	113.41	3.09441e-06
237	233819	113.51	3.29219e-06
237	234020	113.61	3.39538e-06
237	234231	113.71	3.41914e-06
237	234434	113.81	3.37731e-06
237	234641	113.91	3.28242e-06
237	234849	114.01	3.1457e-06
237	235062	114.11	2.97712e-06
237	235273	114.21	2.78543e-06
237	235472	114.31	2.57822e-06
237	235677	114.41	2.36199e-06
237	235880	114.51	2.14224e-06
237	236079	114.61	1.92355e-06
237	236286	114.71	1.70965e-06
237	236489	114.81	1.50351e-06
237	236696	114.91	1.30744e-06
237	236902	115.01	1.12314e-06
237	237103	115.11	9.51805e-07
237	237308	115.21	7.94181e-07
237	237511	115.31	6.50629e-07
237	237712	115.41	5.21198e-07
237	237911	115.51	4.05671e-07
237	238116	115.61	3.03622e-07
237	238313	115.71	2.14462e-07
237	238516	115.81	1.37472e-07
237	238723	115.91	7.18479e-08
237	238929	116.01	1.67244e-08
237	239130	116.11	-2.87955e-08
237	239335	116.21	-6.56215e-08
237	239540	116.31	-9.4655e-08
237	239751	116.41	-1.16775e-07
237	239954	116.51	-1.32826e-07
237	240155	116.61	-1.43611e-07
237	240360	116.71	-1.49883e-07
237	240565	116.81	-1.5234e-07
237	240768	116.91	-1.51623e-07
237	240976	117.01	-1.48316e-07
237	241175	117.11	-1.42943e-07
237	241374	117.21	-1.35971e-07
237	241579	117.31	-1.27813e-07
237	241782	117.41	-1.18827e-07
237	241989	117.51	-1.09325e-07
237	242194	117.61	-9.95694e-08
237	242391	117.71	-8.97806e-08
237	242598	117.81	-8.014e-08
237	242799	117.91	-7.07935e-08
237	243015	118.01	-6.18563e-08
237	243216	118.11	-5.34154e-08
237	243423	118.21	-4.5533e-08
237	243630	118.31	-3.82503e-08
237	243833	118.41	-3.15897e-08
237	244032	118.51	-2.55589e-08
237	244229	118.61	-2.01531e-08
237	244438	118.71	-1.53577e-08
237	244641	118.81	-1.1147e-08
237	244840	118.91	-7.49374e-09
237	245048	119.01	-4.36238e-09
237	245255	119.11	-1.71525e-09
237	245456	119.21	4.86722e-10
237	245655	119.31	2.28439e-09
237	245852	119.41	3.71863e-09
237	246061	119.51	4.82885e-09
237	246262	119.61	5.65272e-09
237	246469	119.71	6.22755e-09
237	246676	119.81	6.58709e-09
237	246881	119.91	6.7633e-09
236	228	1.11	242.45
236	366	1.21	242.45
236	508	1.31	242.45
236	648	1.41	242.45
236	799	1.51	242.45
236	939	1.61	242.45
236	1079	1.71	242.45
236	1218	1.81	242.45
236	1358	1.91	242.45
236	1504	2.01	242.45
236	1644	2.11	242.45
236	1780	2.21	242.45
236	1926	2.31	242.45
236	2064	2.41	242.45
236	2204	2.51	242.45
236	2346	2.61	242.45
236	2486	2.71	242.45
236	2624	2.81	242.45
236	2768	2.91	242.45
236	2911	3.01	242.45
236	3076	3.11	242.45
236	3281	3.21	242.45
236	3482	3.31	242.45
236	3681	3.41	242.45
236	3888	3.51	242.45
236	4087	3.61	242.45
236	4284	3.71	242.45
236	4490	3.81	242.45
236	4697	3.91	242.45
236	4905	4.01	242.45
236	5110	4.11	242.45
236	5317	4.21	242.45
236	5524	4.31	242.45
236	5727	4.41	242.45
236	5930	4.51	242.45
236	6127	4.61	242.45
236	6328	4.71	242.45
236	6531	4.81	242.45
236	6734	4.91	242.45
236	6944	5.01	242.45
236	7143	5.11	242.45
236	7342	5.21	242.45
236	7549	5.31	242.45
236	7746	5.41	242.45
236	7949	5.51	242.45
236	8156	5.61	242.45
236	8359	5.71	242.45
236	8558	5.81	242.45
236	8761	5.91	242.45
236	8967	6.01	242.45
236	9170	6.11	242.45
236	9375	6.21	242.45
236	9578	6.31	242.45
236	9787	6.41	242.45
236	9996	6.51	242.45
236	10201	6.61	242.45
236	10406	6.71	242.45
236	10613	6.81	242.45
236	10820	6.91	242.45
236	11026	7.01	242.45
236	11231	7.11	242.45
236	11436	7.21	242.45
236	11633	7.31	242.45
236	11834	7.41	242.45
236	12039	7.51	242.45
236	12242	7.61	242.45
236	12443	7.71	242.45
236	12644	7.81	242.45
236	12841	7.91	242.45
236	13047	8.01	242.45
236	13246	8.11	242.45
236	13455	8.21	242.45
236	13656	8.31	242.45
236	13859	8.41	242.45
236	14058	8.51	242.45
236	14265	8.61	242.45
236	14470	8.71	242.45
236	14667	8.81	242.45
236	14868	8.91	242.45
236	15074	9.01	242.45
236	15277	9.11	242.45
236	15486	9.21	242.45
236	15695	9.31	242.45
236	15904	9.41	242.45
236	16107	9.51	242.45
236	16304	9.61	242.45
236	16509	9.71	242.45
236	16706	9.81	242.45
236	16915	9.91	242.45
236	17121	10.01	242.45
236	17318	10.11	242.45
236	17515	10.21	242.45
236	17724	10.31	242.45
236	17925	10.41	242.45
236	18130	10.51	242.45
236	18331	10.61	242.45
236	18530	10.71	242.45
236	18729	10.81	242.45
236	18934	10.91	242.45
236	19146	11.01	242.45
236	19343	11.11	242.45
236	19546	11.21	242.45
236	19747	11.31	242.45
236	19944	11.41	242.45
236	20151	11.51	242.45
236	20354	11.61	242.45
236	20555	11.71	242.45
236	20756	11.81	242.45
236	20959	11.91	242.45
236	21163	12.01	242.45
236	21364	12.11	242.45
236	21571	12.21	242.45
236	21776	12.31	242.45
236	21987	12.41	242.45
236	22186	12.51	242.45
236	22393	12.61	242.45
236	22592	12.71	242.45
236	22797	12.81	242.45
236	22996	12.91	242.45
236	23207	13.01	242.45
236	25170	13.11	242.45
236	25375	13.21	242.45
236	25576	13.31	242.45
236	25781	13.41	242.45
236	25980	13.51	242.45
236	26185	13.61	242.45
236	26386	13.71	242.45
236	26589	13.81	242.45
236	26790	13.91	242.45
236	26994	14.01	242.45
236	27197	14.11	242.45
236	27398	14.21	242.45
236	27595	14.31	242.45
236	27794	14.41	242.45
236	27997	14.51	242.45
236	28206	14.61	242.45
236	28407	14.71	242.45
236	28612	14.81	242.45
236	28817	14.91	242.45
236	29029	15.01	242.45
236	29238	15.11	242.45
236	29447	15.21	242.45
236	29654	15.31	242.45
236	29853	15.41	242.45
236	30056	15.51	242.45
236	30255	15.61	242.45
236	30460	15.71	242.45
236	30665	15.81	242.45
236	30872	15.91	242.45
236	31084	16.01	242.45
236	31293	16.11	242.45
236	31492	16.21	242.45
236	31695	16.31	242.45
236	31908	16.41	242.45
236	32111	16.51	242.45
236	32312	16.61	242.45
236	32513	16.71	242.45
236	32718	16.81	242.45
236	32927	16.91	242.45
236	33135	17.01	242.45
236	33340	17.11	242.45
236	33541	17.21	242.45
236	33748	17.31	242.45
236	33957	17.41	242.45
236	34158	17.51	242.45
236	34359	17.61	242.45
236	34560	17.71	242.45
236	34771	17.81	242.45
236	34980	17.91	242.45
236	35190	18.01	242.45
236	35395	18.11	242.45
236	35606	18.21	242.45
236	35805	18.31	242.45
236	36014	18.41	242.45
236	36211	18.51	242.45
236	36410	18.61	242.45
236	36621	18.71	242.45
236	36830	18.81	242.45
236	37041	18.91	242.45
236	37247	19.01	242.45
236	37450	19.11	242.45
236	37649	19.21	242.45
236	37850	19.31	242.45
236	38053	19.41	242.45
236	38252	19.51	242.45
236	38455	19.61	242.45
236	38664	19.71	242.45
236	38869	19.81	242.45
236	39074	19.91	242.45
236	39280	20.01	242.45
236	39483	20.11	242.45
236	39692	20.21	242.45
236	39891	20.31	242.45
236	40092	20.41	242.45
236	40297	20.51	242.45
236	40500	20.61	242.45
236	40709	20.71	242.45
236	40910	20.81	242.45
236	41111	20.91	242.45
236	41325	21.01	242.45
236	41532	21.11	242.45
236	41731	21.21	242.45
236	41930	21.31	242.45
236	42137	21.41	242.45
236	42342	21.51	242.45
236	42539	21.61	242.45
236	42736	21.71	242.45
236	42937	21.81	242.45
236	43144	21.91	242.45
236	43360	22.01	242.45
236	43565	22.11	242.45
236	43774	22.21	242.45
236	43971	22.31	242.45
236	44166	22.41	242.45
236	44369	22.51	242.45
236	44570	22.61	242.45
236	44771	22.71	242.45
236	44970	22.81	242.45
236	45171	22.91	242.45
236	45381	23.01	242.45
236	45584	23.11	242.45
236	45783	23.21	242.45
236	45982	23.31	242.45
236	46183	23.41	242.45
236	46388	23.51	242.45
236	46591	23.61	242.45
236	46798	23.71	242.45
236	47007	23.81	242.45
236	47208	23.91	242.45
236	47418	24.01	242.45
236	47619	24.11	242.45
236	47826	24.21	242.45
236	48037	24.31	242.45
236	48242	24.41	242.45
236	48447	24.51	242.45
236	48648	24.61	242.45
236	48847	24.71	242.45
236	49048	24.81	242.45
236	49251	24.91	242.45
236	49461	25.01	242.45
236	49662	25.11	242.45
236	49861	25.21	242.45
236	50068	25.31	242.45
236	50269	25.41	242.45
236	50470	25.51	242.45
236	50673	25.61	242.45
236	50872	25.71	242.45
236	51077	25.81	242.45
236	51276	25.91	242.45
236	51480	26.01	242.45
236	51685	26.11	242.45
236	51888	26.21	242.45
236	52091	26.31	242.45
236	52296	26.41	242.45
236	52499	26.51	242.45
236	52702	26.61	242.45
236	52903	26.71	242.45
236	53106	26.81	242.45
236	53305	26.91	242.45
236	53511	27.01	242.45
236	53714	27.11	242.45
236	53913	27.21	242.45
236	54120	27.31	242.45
236	54325	27.41	242.45
236	54524	27.51	242.45
236	54727	27.61	242.45
236	54932	27.71	242.45
236	55137	27.81	242.45
236	55344	27.91	242.45
236	55550	28.01	242.45
236	55749	28.11	242.45
236	55954	28.21	242.45
236	56157	28.31	242.45
236	56362	28.41	242.45
236	56567	28.51	242.45
236	56764	28.61	242.45
236	56967	28.71	242.45
236	57176	28.81	242.45
236	57377	28.91	242.45
236	57585	29.01	242.45
236	57794	29.11	242.45
236	57991	29.21	242.45
236	58192	29.31	242.45
236	58395	29.41	242.45
236	58604	29.51	242.45
236	58803	29.61	242.45
236	59002	29.71	242.45
236	59205	29.81	242.45
236	59412	29.91	242.45
236	59622	30.01	242.45
236	59825	30.11	242.45
236	60030	30.21	242.45
236	60229	30.31	242.45
236	60430	30.41	242.45
236	60627	30.51	242.45
236	60832	30.61	242.45
236	61029	30.71	242.45
236	61240	30.81	242.45
236	61443	30.91	242.45
236	61649	31.01	242.45
236	61846	31.11	242.45
236	62061	31.21	242.45
236	62268	31.31	242.45
236	62475	31.41	242.45
236	62680	31.51	242.45
236	62887	31.61	242.45
236	63094	31.71	242.45
236	63295	31.81	242.45
236	63494	31.91	242.45
236	63698	32.01	242.45
236	63901	32.11	242.45
236	64108	32.21	242.45
236	64317	32.31	242.45
236	64516	32.41	242.45
236	64715	32.51	242.45
236	64920	32.61	242.45
236	65117	32.71	242.45
236	65322	32.81	242.45
236	65527	32.91	242.45
236	65737	33.01	242.45
236	65942	33.11	242.45
236	66141	33.21	242.45
236	66340	33.31	242.45
236	66543	33.41	242.45
236	66756	33.51	242.45
236	66963	33.61	242.45
236	67172	33.71	242.45
236	67369	33.81	242.45
236	67570	33.91	242.45
236	67772	34.01	242.45
236	67973	34.11	242.45
236	68180	34.21	242.45
236	68383	34.31	242.45
236	68596	34.41	242.45
236	68803	34.51	242.45
236	69004	34.61	242.45
236	69211	34.71	242.45
236	69412	34.81	242.45
236	69613	34.91	242.45
236	69825	35.01	242.45
236	70024	35.11	242.45
236	70225	35.21	242.45
236	70424	35.31	242.45
236	70627	35.41	242.45
236	70824	35.51	242.45
236	71031	35.61	242.45
236	71234	35.71	242.45
236	71433	35.81	242.45
236	71636	35.91	242.45
236	71842	36.01	242.45
236	72043	36.11	242.45
236	72252	36.21	242.45
236	72453	36.31	242.45
236	72660	36.41	242.45
236	72855	36.51	242.45
236	73056	36.61	242.45
236	73263	36.71	242.45
236	73466	36.81	242.45
236	73667	36.91	242.45
236	73877	37.01	242.45
236	74078	37.11	242.45
236	74285	37.21	242.45
236	74490	37.31	242.45
236	74693	37.41	242.45
236	74894	37.51	242.45
236	75089	37.61	242.45
236	75288	37.71	242.45
236	75491	37.81	242.45
236	75692	37.91	242.45
236	75898	38.01	242.45
236	76103	38.11	242.45
236	76308	38.21	242.45
236	76509	38.31	242.45
236	76708	38.41	242.45
236	76905	38.51	242.45
236	77108	38.61	242.45
236	77309	38.71	242.45
236	77506	38.81	242.45
236	77715	38.91	242.45
236	77921	39.01	242.45
236	78118	39.11	242.45
236	78321	39.21	242.45
236	78526	39.31	242.45
236	78725	39.41	242.45
236	78928	39.51	242.45
236	79131	39.61	242.45
236	79334	39.71	242.45
236	79539	39.81	242.45
236	79746	39.91	242.45
236	79950	40.01	242.45
236	80149	40.11	242.45
236	80350	40.21	242.45
236	80553	40.31	242.45
236	80756	40.41	242.45
236	80963	40.51	242.45
236	81164	40.61	242.45
236	81369	40.71	242.45
236	81574	40.81	242.45
236	81775	40.91	242.45
236	81979	41.01	242.45
236	82178	41.11	242.45
236	82381	41.21	242.45
236	82586	41.31	242.45
236	82791	41.41	242.45
236	82996	41.51	242.45
236	83199	41.61	242.45
236	83408	41.71	242.45
236	83607	41.81	242.45
236	83812	41.91	242.45
236	84020	42.01	242.45
236	84221	42.11	242.45
236	84422	42.21	242.45
236	84619	42.31	242.45
236	84818	42.41	242.45
236	85019	42.51	242.45
236	85222	42.61	242.45
236	85421	42.71	242.45
236	85626	42.81	242.45
236	85833	42.91	242.45
236	86037	43.01	242.45
236	86240	43.11	242.45
236	86675	43.21	242.45
236	90540	43.31	242.45
236	90741	43.41	242.45
236	90942	43.51	242.45
236	91145	43.61	242.45
236	91352	43.71	242.45
236	91561	43.81	242.45
236	91764	43.91	242.45
236	91974	44.01	242.45
236	92181	44.11	242.45
236	92386	44.21	242.45
236	92587	44.31	242.45
236	92792	44.41	242.45
236	93001	44.51	242.45
236	93204	44.61	242.45
236	93409	44.71	242.45
236	93616	44.81	242.45
236	93821	44.91	242.45
236	94037	45.01	242.45
236	94238	45.11	242.45
236	94443	45.21	242.45
236	94646	45.31	242.45
236	94859	45.41	242.45
236	95062	45.51	242.45
236	95267	45.61	242.45
236	95472	45.71	242.45
236	95679	45.81	242.45
236	95884	45.91	242.45
236	96092	46.01	242.45
236	96295	46.11	242.45
236	96498	46.21	242.45
236	96699	46.31	242.45
236	96904	46.41	242.45
236	97107	46.51	242.45
236	97308	46.61	242.45
236	97511	46.71	242.45
236	97714	46.81	242.45
236	97915	46.91	242.45
236	98127	47.01	242.45
236	98334	47.11	242.45
236	98535	47.21	242.45
236	98730	47.31	242.45
236	98933	47.41	242.45
236	99136	47.51	242.45
236	99341	47.61	242.45
236	99544	47.71	242.45
236	99751	47.81	242.45
236	99954	47.91	242.45
236	100162	48.01	242.45
236	100369	48.11	242.45
236	100576	48.21	242.45
236	100779	48.31	242.45
236	100984	48.41	242.45
236	101189	48.51	242.45
236	101386	48.61	242.45
236	101585	48.71	242.45
236	101784	48.81	242.45
236	101983	48.91	242.45
236	102193	49.01	242.45
236	102402	49.11	242.45
236	102609	49.21	242.45
236	102812	49.31	242.45
236	103021	49.41	242.45
236	103218	49.51	242.45
236	103425	49.61	242.45
236	103628	49.71	242.45
236	103827	49.81	242.45
236	104028	49.91	242.45
236	104232	50.01	242.45
236	104435	50.11	242.45
236	104638	50.21	242.45
236	104837	50.31	242.45
[...]
337	161399	78.003723	0.399995
337	161809	78.203727	0.200004
337	162219	78.403731	0.200004
337	164862	79.703731	1.3
337	165280	79.903722	0.199991
337	166503	80.503721	0.599999
337	168148	81.303724	0.800003
337	168362	81.403726	0.100002
337	169368	81.903723	0.499997
337	169781	82.103727	0.200004
337	169983	82.203729	0.100002
337	171011	82.703726	0.499997
337	172232	83.303725	0.599999
337	172840	83.603731	0.300006
337	174075	84.20373	0.599999
337	174275	84.303732	0.100002
337	174487	84.403721	0.099989
337	174695	84.503723	0.100002
337	174899	84.603725	0.100002
337	175716	85.00372	0.399995
337	177336	85.803723	0.800003
337	178771	86.503724	0.700001
337	178975	86.603726	0.100002
337	181018	87.60372	0.999994
337	181222	87.703722	0.100002
337	182873	88.503725	0.800003
337	183892	89.003722	0.499997
337	184296	89.203726	0.200004
337	187355	90.70373	1.500004
337	188174	91.103725	0.399995
337	190823	92.403725	1.3
337	191427	92.703731	0.300006
337	193266	93.603723	0.899992
337	195699	94.803721	1.199998
337	195901	94.903723	0.100002
337	196314	95.103727	0.200004
337	196522	95.203729	0.100002
337	197550	95.703726	0.499997
337	198367	96.103721	0.399995
337	198777	96.303725	0.200004
337	200846	97.303732	1.000007
337	201874	97.803729	0.499997
337	202080	97.903731	0.100002
337	203103	98.403728	0.499997
337	204736	99.203731	0.800003
337	204940	99.30372	0.099989
337	208579	101.10373	1.80001
337	209403	101.503725	0.399995
337	210411	102.003722	0.499997
337	215301	104.403731	2.400009
337	215504	104.50372	0.099989
337	215908	104.703724	0.200004
337	216920	105.203721	0.499997
337	217742	105.603729	0.400008
337	219759	106.603723	0.999994
337	220767	107.10372	0.499997
337	221571	107.503728	0.400008
337	221774	107.60373	0.100002
337	223612	108.503722	0.899992
337	224016	108.703726	0.200004
337	224420	108.90373	0.200004
337	226240	109.803722	0.899992
337	226651	110.003726	0.200004
337	228281	110.803729	0.800003
337	230537	111.903725	1.099996
337	230956	112.103729	0.200004
337	231360	112.30372	0.199991
337	231573	112.403722	0.100002
337	234432	113.803724	1.400002
337	235271	114.203732	0.400008
337	236694	114.90372	0.699988
337	237909	115.503732	0.600012
337	238514	115.803725	0.299993
337	238721	115.903727	0.100002
337	240766	116.903721	0.999994
337	240974	117.003723	0.100002
337	241372	117.203727	0.200004
337	245454	119.203728	2.000001
337	246674	119.803727	0.599999
336	96213	46.054668	1.199998
336	96414	46.15467	0.100002
336	96818	46.354661	0.199991
336	97429	46.654667	0.300006
336	99665	47.754663	1.099996
336	101105	48.454664	0.700001
336	102106	48.954661	0.499997
336	102318	49.054663	0.100002
336	102728	49.254667	0.200004
336	103343	49.554673	0.300006
336	104353	50.05467	0.499997
336	104558	50.154672	0.100002
336	106382	51.054664	0.899992
336	107582	51.654663	0.599999
336	107986	51.854667	0.200004
336	111837	53.754666	1.899999
336	112857	54.254663	0.499997
336	113866	54.754673	0.50001
336	114675	55.154668	0.399995
336	115093	55.354672	0.200004
336	116327	55.954671	0.599999
336	116536	56.054673	0.100002
336	117356	56.454668	0.399995
336	117566	56.55467	0.100002
336	117768	56.654672	0.100002
336	118795	57.154669	0.499997
336	119619	57.554664	0.399995
336	122891	59.15467	1.600006
336	123505	59.454663	0.299993
336	123713	59.554665	0.100002
336	125750	60.554672	1.000007
336	125958	60.654661	0.099989
336	127369	61.354662	0.700001
336	127979	61.654668	0.300006
336	131031	63.154672	1.500004
336	131231	63.254661	0.099989
336	131437	63.354663	0.100002
336	133086	64.154666	0.800003
336	133288	64.254668	0.100002
336	133694	64.454672	0.200004
336	135325	65.254662	0.79999
336	135935	65.554668	0.300006
336	137358	66.254669	0.700001
336	137766	66.454673	0.200004
336	139211	67.154661	0.699988
336	140445	67.754673	0.600012
336	140861	67.954664	0.199991
336	141070	68.054666	0.100002
336	141676	68.354672	0.300006
336	142078	68.554663	0.199991
336	142690	68.854669	0.300006
336	143921	69.454668	0.599999
336	146994	70.954672	1.500004
336	148025	71.454669	0.499997
336	148839	71.854664	0.399995
336	149656	72.254672	0.400008
336	149854	72.354661	0.099989
336	150472	72.654667	0.300006
336	150680	72.754669	0.100002
336	152109	73.45467	0.700001
336	152313	73.554672	0.100002
336	153950	74.354662	0.79999
336	158434	76.554667	2.200005
336	158642	76.654669	0.100002
336	159467	77.054664	0.399995
336	159673	77.154666	0.100002
336	160083	77.35467	0.200004
336	161934	78.254662	0.899992
336	163150	78.854661	0.599999
336	164573	79.554662	0.700001
336	167036	80.754673	1.200011
336	168277	81.354672	0.599999
336	169698	82.054673	0.700001
336	171340	82.854663	0.79999
336	172151	83.254671	0.400008
336	172355	83.354673	0.100002
336	172967	83.654666	0.299993
336	173992	84.154663	0.499997
336	177041	85.654667	1.500004
336	177255	85.754669	0.100002
336	177459	85.854671	0.100002
336	178686	86.45467	0.599999
336	179500	86.854665	0.399995
336	181557	87.854672	1.000007
336	182180	88.154665	0.299993
336	182992	88.554673	0.400008
336	183402	88.754664	0.199991
336	184211	89.154672	0.400008
336	185025	89.554667	0.399995
336	185439	89.754671	0.200004
336	186448	90.254668	0.499997
336	186864	90.454672	0.200004
336	190118	92.054665	1.599993
336	190530	92.254669	0.200004
336	193185	93.554669	1.3
336	193989	93.954664	0.399995
336	194604	94.25467	0.300006
336	195014	94.454661	0.199991
336	196026	94.954671	0.50001
336	196439	95.154662	0.199991
336	197465	95.654672	0.50001
336	198286	96.054667	0.399995
336	198902	96.354673	0.300006
336	199318	96.554664	0.199991
336	201793	97.754662	1.199998
336	201997	97.854664	0.100002
336	202620	98.15467	0.300006
336	204653	99.154664	0.999994
336	205467	99.554672	0.400008
336	206695	100.154671	0.599999
336	207487	100.554666	0.399995
336	208499	101.054663	0.499997
336	209116	101.354669	0.300006
336	209319	101.454671	0.100002
336	209723	101.654662	0.199991
336	210534	102.05467	0.400008
336	213586	103.554661	1.499991
336	215424	104.454666	0.900005
336	216641	105.054665	0.599999
336	217863	105.654664	0.599999
336	218466	105.95467	0.300006
336	218674	106.054672	0.100002
336	220485	106.954664	0.899992
336	223118	108.254664	1.3
336	223936	108.654672	0.400008
336	224141	108.754661	0.099989
336	225153	109.254671	0.50001
336	227992	110.654673	1.400002
336	229223	111.254672	0.599999
336	229432	111.354661	0.099989
336	230455	111.854671	0.50001
336	231280	112.254666	0.399995
336	231698	112.45467	0.200004
336	232100	112.654661	0.199991
336	232510	112.854665	0.200004
336	232711	112.954667	0.100002
336	232921	113.054669	0.100002
336	233124	113.154671	0.100002
336	233331	113.254673	0.100002
336	234978	114.054663	0.79999
336	235187	114.154665	0.100002
336	236204	114.654662	0.499997
336	237829	115.454665	0.800003
336	238637	115.854673	0.400008
336	238842	115.954662	0.099989
336	242924	117.954663	2.000001
336	244760	118.854668	0.900005
336	245169	119.054672	0.200004
336	245374	119.154661	0.099989
336	245772	119.354665	0.200004
335	91143	43.603724	4
335	91350	43.703726	4
335	91972	44.003732	4
335	92585	44.303725	4
335	93614	44.803722	4
335	95882	45.903731	4
335	96090	46.00372	4
335	96902	46.403728	4
335	98332	47.103729	4
335	99134	47.503724	4
335	99952	47.903732	4
335	100367	48.103723	4
335	100574	48.203725	4
335	101187	48.503731	4
335	102191	49.003728	4
335	103423	49.603727	4
335	105044	50.40373	4
335	105442	50.603721	4
335	105641	50.703723	4
335	107061	51.403724	4
335	107863	51.803732	4
335	108068	51.903721	4
335	108885	52.303729	4
335	110490	53.103732	4
335	110697	53.203721	4
335	110900	53.303723	4
335	111919	53.80372	4
335	113349	54.503721	4
335	113546	54.603723	4
335	114147	54.903729	4
335	114552	55.10372	4
335	115178	55.403726	4
335	115998	55.803721	4
335	117235	56.40372	4
335	119294	57.403727	4
335	121337	58.403721	4
335	121541	58.503723	4
335	122974	59.203724	4
335	123586	59.50373	4
335	126241	60.80373	4
335	127452	61.403729	4
335	128060	61.703722	4
335	129469	62.403723	4
335	129673	62.503725	4
335	130483	62.90372	4
335	132550	63.903727	4
335	133985	64.603728	4
335	135610	65.403731	4
335	138055	66.603729	4
335	138263	66.703731	4
335	139296	67.203728	4
335	139508	67.30373	4
335	141155	68.10372	4
335	143590	69.303731	4
335	144006	69.503722	4
335	145429	70.203723	4
335	146463	70.70372	4
335	146869	70.903724	4
335	147084	71.003726	4
335	147284	71.103728	4
335	147490	71.20373	4
335	147694	71.303732	4
335	147900	71.403721	4
335	148718	71.803729	4
335	150965	72.903725	4
335	152600	73.703728	4
335	156688	75.703729	4
335	160368	77.503726	4
335	160572	77.603728	4
335	161399	78.003723	4
335	161809	78.203727	4
335	162219	78.403731	4
335	164862	79.703731	4
335	165280	79.903722	4
335	166503	80.503721	4
335	168148	81.303724	4
335	168362	81.403726	4
335	169368	81.903723	4
335	169781	82.103727	4
335	169983	82.203729	4
335	171011	82.703726	4
335	172232	83.303725	4
335	172840	83.603731	4
335	174075	84.20373	4
335	174275	84.303732	4
335	174487	84.403721	4
335	174695	84.503723	4
335	174899	84.603725	4
335	175716	85.00372	4
335	177336	85.803723	4
335	178771	86.503724	4
335	178975	86.603726	4
335	181018	87.60372	4
335	181222	87.703722	4
335	182873	88.503725	4
335	183892	89.003722	4
335	184296	89.203726	4
335	187355	90.70373	4
335	188174	91.103725	4
335	190823	92.403725	4
335	191427	92.703731	4
335	193266	93.603723	4
335	195699	94.803721	4
335	195901	94.903723	4
335	196314	95.103727	4
335	196522	95.203729	4
335	197550	95.703726	4
335	198367	96.103721	4
335	198777	96.303725	4
335	200846	97.303732	4
335	201874	97.803729	4
335	202080	97.903731	4
335	203103	98.403728	4
335	204736	99.203731	4
335	204940	99.30372	4
335	208579	101.10373	4
335	209403	101.503725	4
335	210411	102.003722	4
335	215301	104.403731	4
335	215504	104.50372	4
335	215908	104.703724	4
335	216920	105.203721	4
335	217742	105.603729	4
335	219759	106.603723	4
335	220767	107.10372	4
335	221571	107.503728	4
335	221774	107.60373	4
335	223612	108.503722	4
335	224016	108.703726	4
335	224420	108.90373	4
335	226240	109.803722	4
335	226651	110.003726	4
335	228281	110.803729	4
335	230537	111.903725	4
335	230956	112.103729	4
335	231360	112.30372	4
335	231573	112.403722	4
335	234432	113.803724	4
335	235271	114.203732	4
335	236694	114.90372	4
335	237909	115.503732	4
335	238514	115.803725	4
335	238721	115.903727	4
335	240766	116.903721	4
335	240974	117.003723	4
335	241372	117.203727	4
335	245454	119.203728	4
335	246674	119.803727	4
334	96213	46.054668	4
334	96414	46.15467	4
334	96818	46.354661	4
334	97429	46.654667	4
334	99665	47.754663	4
334	101105	48.454664	4
334	102106	48.954661	4
334	102318	49.054663	4
334	102728	49.254667	4
334	103343	49.554673	4
334	104353	50.05467	4
334	104558	50.154672	4
334	106382	51.054664	4
334	107582	51.654663	4
334	107986	51.854667	4
334	111837	53.754666	4
334	112857	54.254663	4
334	113866	54.754673	4
334	114675	55.154668	4
334	115093	55.354672	4
334	116327	55.954671	4
334	116536	56.054673	4
334	117356	56.454668	4
334	117566	56.55467	4
334	117768	56.654672	4
334	118795	57.154669	4
334	119619	57.554664	4
334	122891	59.15467	4
334	123505	59.454663	4
334	123713	59.554665	4
334	125750	60.554672	4
334	125958	60.654661	4
334	127369	61.354662	4
334	127979	61.654668	4
334	131031	63.154672	4
334	131231	63.254661	4
334	131437	63.354663	4
334	133086	64.154666	4
334	133288	64.254668	4
334	133694	64.454672	4
334	135325	65.254662	4
334	135935	65.554668	4
334	137358	66.254669	4
334	137766	66.454673	4
334	139211	67.154661	4
334	140445	67.754673	4
334	140861	67.954664	4
334	141070	68.054666	4
334	141676	68.354672	4
334	142078	68.554663	4
334	142690	68.854669	4
334	143921	69.454668	4
334	146994	70.954672	4
334	148025	71.454669	4
334	148839	71.854664	4
334	149656	72.254672	4
334	149854	72.354661	4
334	150472	72.654667	4
334	150680	72.754669	4
334	152109	73.45467	4
334	152313	73.554672	4
334	153950	74.354662	4
334	158434	76.554667	4
334	158642	76.654669	4
334	159467	77.054664	4
334	159673	77.154666	4
334	160083	77.35467	4
334	161934	78.254662	4
334	163150	78.854661	4
334	164573	79.554662	4
334	167036	80.754673	4
334	168277	81.354672	4
334	169698	82.054673	4
334	171340	82.854663	4
334	172151	83.254671	4
334	172355	83.354673	4
334	172967	83.654666	4
334	173992	84.154663	4
334	177041	85.654667	4
334	177255	85.754669	4
334	177459	85.854671	4
334	178686	86.45467	4
334	179500	86.854665	4
334	181557	87.854672	4
334	182180	88.154665	4
334	182992	88.554673	4
334	183402	88.754664	4
334	184211	89.154672	4
334	185025	89.554667	4
334	185439	89.754671	4
334	186448	90.254668	4
334	186864	90.454672	4
334	190118	92.054665	4
334	190530	92.254669	4
334	193185	93.554669	4
334	193989	93.954664	4
334	194604	94.25467	4
334	195014	94.454661	4
334	196026	94.954671	4
334	196439	95.154662	4
334	197465	95.654672	4
334	198286	96.054667	4
334	198902	96.354673	4
334	199318	96.554664	4
334	201793	97.754662	4
334	201997	97.854664	4
334	202620	98.15467	4
334	204653	99.154664	4
334	205467	99.554672	4
334	206695	100.154671	4
334	207487	100.554666	4
334	208499	101.054663	4
334	209116	101.354669	4
334	209319	101.454671	4
334	209723	101.654662	4
334	210534	102.05467	4
334	213586	103.554661	4
334	215424	104.454666	4
334	216641	105.054665	4
334	217863	105.654664	4
334	218466	105.95467	4
334	218674	106.054672	4
334	220485	106.954664	4
334	223118	108.254664	4
334	223936	108.654672	4
334	224141	108.754661	4
334	225153	109.254671	4
334	227992	110.654673	4
334	229223	111.254672	4
334	229432	111.354661	4
334	230455	111.854671	4
334	231280	112.254666	4
334	231698	112.45467	4
334	232100	112.654661	4
334	232510	112.854665	4
334	232711	112.954667	4
334	232921	113.054669	4
334	233124	113.154671	4
334	233331	113.254673	4
334	234978	114.054663	4
334	235187	114.154665	4
334	236204	114.654662	4
334	237829	115.454665	4
334	238637	115.854673	4
334	238842	115.954662	4
334	242924	117.954663	4
334	244760	118.854668	4
334	245169	119.054672	4
334	245374	119.154661	4
334	245772	119.354665	4
333	4868	4	0
333	6907	5	0
333	8930	6	0
333	10989	7	0
333	13010	8	0
333	15035	9	0
333	17084	10	0
333	19105	11	0
333	21126	12	0
333	23169	13	0
333	26955	14	0
333	28988	15	0
333	31045	16	0
333	33098	17	0
333	35149	18	0
333	37208	19	0
333	39243	20	0
333	41286	21	0
333	43319	22	0
333	45340	23	0
333	47379	24	0
333	49424	25	0
333	51443	26	0
333	53474	27	0
333	55513	28	0
333	57548	29	0
333	59583	30	0
333	61610	31	0
333	63661	32	0
333	65698	33	0
333	67735	34	0
333	69784	35	0
333	71805	36	0
333	73838	37	0
333	75859	38	0
333	77882	39	0
333	79913	40	0
333	81942	41	0
333	83983	42	0
333	86000	43	0
333	91933	44	0
333	93998	45	0
333	96053	46	0
333	98084	47	0
333	100123	48	0
333	102154	49	0
333	104195	50	0
333	106226	51	0
333	108241	52	0
333	110252	53	0
333	112295	54	0
333	114319	55	0
333	116375	56	0
333	118428	57	0
333	120483	58	0
333	122530	59	0
333	124567	60	0
333	126612	61	0
333	128633	62	0
333	130658	63	0
333	132723	64	0
333	134762	65	0
333	136791	66	0
333	138840	67	0
333	140909	68	0
333	142940	69	0
333	144987	70	0
333	147044	71	0
333	149089	72	0
333	151134	73	0
333	153181	74	0
333	155224	75	0
333	157267	76	0
333	159310	77	0
333	161359	78	0
333	163400	79	0
333	165445	80	0
333	167492	81	0
333	169539	82	0
333	171588	83	0
333	173625	84	0
333	175678	85	0
333	177715	86	0
333	179754	87	0
333	181815	88	0
333	183852	89	0
333	185891	90	0
333	187934	91	0
333	189957	92	0
333	192002	93	0
333	194039	94	0
333	196074	95	0
333	198127	96	0
333	200180	97	0
333	202253	98	0
333	204286	99	0
333	206332	100	0
333	208341	101	0
333	210374	102	0
333	212403	103	0
333	214452	104	0
333	216479	105	0
333	218516	106	0
333	220533	107	0
333	222544	108	0
333	224593	109	0
333	226614	110	0
333	228655	111	0
333	230714	112	0
333	232761	113	0
333	234812	114	0
333	236865	115	0
333	238890	116	0
333	240935	117	0
333	242976	118	0
333	245011	119	0
333	247048	120	0
332	4868	4	0.023817
332	6907	5	0.02481
332	8930	6	0.02481
332	10989	7	0.02481
332	13010	8	0.02481
332	15035	9	0.02481
332	17084	10	0.02481
332	19105	11	0.02481
332	21126	12	0.02481
332	23169	13	0.02481
332	26955	14	0.036896
332	28988	15	0.02481
332	31045	16	0.02481
332	33098	17	0.02481
332	35149	18	0.02481
332	37208	19	0.02481
332	39243	20	0.02481
332	41286	21	0.02481
332	43319	22	0.02481
332	45340	23	0.02481
332	47379	24	0.02481
332	49424	25	0.02481
332	51443	26	0.02481
332	53474	27	0.02481
332	55513	28	0.02481
332	57548	29	0.02481
332	59583	30	0.02481
332	61610	31	0.02481
332	63661	32	0.02481
332	65698	33	0.02481
332	67735	34	0.02481
332	69784	35	0.02481
332	71805	36	0.02481
332	73838	37	0.02481
332	75859	38	0.02481
332	77882	39	0.02481
332	79913	40	0.02481
332	81942	41	0.02481
332	83983	42	0.02481
332	86000	43	0.02481
332	91933	44	0.051988
332	93998	45	0.02481
332	96053	46	0.02481
332	98084	47	0.02481
332	100123	48	0.02481
332	102154	49	0.02481
332	104195	50	0.02481
332	106226	51	0.02481
332	108241	52	0.02481
332	110252	53	0.02481
332	112295	54	0.02481
332	114319	55	0.02481
332	116375	56	0.02481
332	118428	57	0.02481
332	120483	58	0.02481
332	122530	59	0.02481
332	124567	60	0.02481
332	126612	61	0.02481
332	128633	62	0.02481
332	130658	63	0.02481
332	132723	64	0.02481
332	134762	65	0.02481
332	136791	66	0.02481
332	138840	67	0.02481
332	140909	68	0.02481
332	142940	69	0.02481
332	144987	70	0.02481
332	147044	71	0.02481
332	149089	72	0.02481
332	151134	73	0.02481
332	153181	74	0.02481
332	155224	75	0.02481
332	157267	76	0.02481
332	159310	77	0.02481
332	161359	78	0.02481
332	163400	79	0.02481
332	165445	80	0.02481
332	167492	81	0.02481
332	169539	82	0.02481
332	171588	83	0.02481
332	173625	84	0.02481
332	175678	85	0.02481
332	177715	86	0.02481
332	179754	87	0.02481
332	181815	88	0.02481
332	183852	89	0.02481
332	185891	90	0.02481
332	187934	91	0.02481
332	189957	92	0.02481
332	192002	93	0.02481
332	194039	94	0.02481
332	196074	95	0.02481
332	198127	96	0.02481
332	200180	97	0.02481
332	202253	98	0.02481
332	204286	99	0.02481
332	206332	100	0.02481
332	208341	101	0.02481
332	210374	102	0.02481
332	212403	103	0.02481
332	214452	104	0.02481
332	216479	105	0.02481
332	218516	106	0.02481
332	220533	107	0.02481
332	222544	108	0.02481
332	224593	109	0.02481
332	226614	110	0.02481
332	228655	111	0.02481
332	230714	112	0.02481
332	232761	113	0.02481
332	234812	114	0.02481
332	236865	115	0.02481
332	238890	116	0.02481
332	240935	117	0.02481
332	242976	118	0.02481
332	245011	119	0.02481
332	247048	120	0.02481
331	4868	4	4
331	6907	5	4
331	8930	6	4
331	10989	7	4
331	13010	8	4
331	15035	9	4
331	17084	10	4
331	19105	11	4
331	21126	12	4
331	23169	13	4
331	26955	14	4
331	28988	15	4
331	31045	16	4
331	33098	17	4
331	35149	18	4
331	37208	19	4
331	39243	20	4
331	41286	21	4
331	43319	22	4
331	45340	23	4
331	47379	24	4
331	49424	25	4
331	51443	26	4
331	53474	27	4
331	55513	28	4
331	57548	29	4
331	59583	30	4
331	61610	31	4
331	63661	32	4
331	65698	33	4
331	67735	34	4
331	69784	35	4
331	71805	36	4
331	73838	37	4
331	75859	38	4
331	77882	39	4
331	79913	40	4
331	81942	41	4
331	83983	42	4
331	86000	43	4
331	91933	44	4
331	93998	45	4
331	96053	46	4
331	98084	47	4
331	100123	48	4
331	102154	49	4
331	104195	50	4
331	106226	51	4
331	108241	52	4
331	110252	53	4
331	112295	54	4
331	114319	55	4
331	116375	56	4
331	118428	57	4
331	120483	58	4
331	122530	59	4
331	124567	60	4
331	126612	61	4
331	128633	62	4
331	130658	63	4
331	132723	64	4
331	134762	65	4
331	136791	66	4
331	138840	67	4
331	140909	68	4
331	142940	69	4
331	144987	70	4
331	147044	71	4
331	149089	72	4
331	151134	73	4
331	153181	74	4
331	155224	75	4
331	157267	76	4
331	159310	77	4
331	161359	78	4
331	163400	79	4
331	165445	80	4
331	167492	81	4
331	169539	82	4
331	171588	83	4
331	173625	84	4
331	175678	85	4
331	177715	86	4
331	179754	87	4
331	181815	88	4
331	183852	89	4
331	185891	90	4
331	187934	91	4
331	189957	92	4
331	192002	93	4
331	194039	94	4
331	196074	95	4
331	198127	96	4
331	200180	97	4
331	202253	98	4
331	204286	99	4
331	206332	100	4
331	208341	101	4
331	210374	102	4
331	212403	103	4
331	214452	104	4
331	216479	105	4
331	218516	106	4
331	220533	107	4
331	222544	108	4
331	224593	109	4
331	226614	110	4
331	228655	111	4
331	230714	112	4
331	232761	113	4
331	234812	114	4
331	236865	115	4
331	238890	116	4
331	240935	117	4
331	242976	118	4
331	245011	119	4
331	247048	120	4
