version 2
run MyJoinManeuverNoGui-0-20210521-03:01:12-80281
attr actDelay 0.5
attr configname MyJoinManeuverNoGui
attr controller 0
attr datetime 20210521-03:01:12
attr experiment MyJoinManeuverNoGui
attr headway 0.3
attr inifile omnetpp.ini
attr iterationvars "$nCars=4, $controller=0, $sController=\"ACC\", $headway=0.3, $oscillationAmp=35, $actDelay=0.5, $thermalNoise=-95, $txPower=100, $packetLossRate=0, $leaderHeadway=1.2, $leaderSpeed=100, $priority=2"
attr iterationvarsf nCars=4,controller=0,sController=ACC,headway=0.3,oscillationAmp=35,actDelay=0.5,thermalNoise=-95,txPower=100,packetLossRate=0,leaderHeadway=1.2,leaderSpeed=100,priority=2-
attr leaderHeadway 1.2
attr leaderSpeed 100
attr measurement "$nCars=4, $controller=0, $sController=\"ACC\", $headway=0.3, $oscillationAmp=35, $actDelay=0.5, $thermalNoise=-95, $txPower=100, $packetLossRate=0, $leaderHeadway=1.2, $leaderSpeed=100, $priority=2"
attr nCars 4
attr network Highway
attr oscillationAmp 35
attr packetLossRate 0
attr priority 2
attr processid 80281
attr repetition 0
attr replication #0
attr resultdir results
attr runnumber 0
attr sController "\"ACC\""
attr seedset 0
attr thermalNoise -95
attr txPower 100
param **.controllerOmegaN 0.2
param **.controllerXi 1
param **.coreDebug false
param **.debug false
param **.headway 0.3s
param **.numberOfLanes 1
param **.numericController 0
param **.seed 0
param **.traffic.nCars 4
param **.traffic.nLanes 1
param **.traffic.platoonInsertDistance "2 m"
param **.traffic.platoonInsertHeadway "0.3 s"
param **.traffic.platoonInsertSpeed 100kmph
param **.traffic.platoonInsertTime "1 s"
param **.traffic.platoonSize 4
param **.traffic.platooningVType "\"vtypeauto\""
param **.traffic_type "\"JoinTrafficManager\""
param *.**.nic.mac1609_4.bitrate 6Mbps
param *.**.nic.mac1609_4.txPower 100mW
param *.**.nic.mac1609_4.useServiceChannel false
param *.**.nic.phy80211p.analogueModels "xmldoc(\"config.xml\")"
param *.**.nic.phy80211p.decider "xmldoc(\"config.xml\")"
param *.**.nic.phy80211p.maxTXPower 100mW
param *.**.nic.phy80211p.sensitivity -94dBm
param *.**.nic.phy80211p.thermalNoise -95dBm
param *.**.nic.phy80211p.usePropagationDelay false
param *.**.nic.phy80211p.useThermalNoise true
param *.annotations.draw false
param *.connectionManager.drawMaxIntfDist false
param *.connectionManager.maxInterfDist 2600m
param *.connectionManager.sendDirect true
param *.manager.autoShutdown true
param *.manager.configFile "\"./sumocfg/freeway.sumo.cfg\""
param *.manager.host "\"localhost\""
param *.manager.margin 25
param *.manager.moduleDisplayString "\"\""
param *.manager.moduleName "\"node\""
param *.manager.moduleType "\"org.car2x.veins.modules.application.platooning.PlatoonCar\""
param *.manager.updateInterval 0.01s
param *.manager.useGui true
param *.node[*].appl.controller "\"ACC\""
param *.node[*].appl.joinManeuver "\"JoinAtBack\""
param *.node[*].appl_type "\"GeneralPlatooningApp\""
param *.node[*].helper.nCars 4
param *.node[*].helper.nLanes 1
param *.node[*].helper.platoonSize 4
param *.node[*].helper_type "\"LocalPlatoonPositionHelper\""
param *.node[*].mobility.x 0
param *.node[*].mobility.y 0
param *.node[*].mobility.z 1.895
param *.node[*].prot.beaconingInterval "0.1 s"
param *.node[*].prot.packetSize 200
param *.node[*].prot.priority 2
param *.node[*].protocol_type "\"SimplePlatooningBeaconing\""
param *.node[*].scenario.accHeadway "0.1 s"
param *.node[*].scenario.brakingDeceleration "8 mpsps"
param *.node[*].scenario.caccC1 0.5
param *.node[*].scenario.caccOmegaN "0.2 Hz"
param *.node[*].scenario.caccXi 1
param *.node[*].scenario.controller "\"ACC\""
param *.node[*].scenario.engineTau "0.5 s"
param *.node[*].scenario.leaderHeadway 1.2s
param *.node[*].scenario.leaderOscillationFrequency "0.2 Hz"
param *.node[*].scenario.leaderSpeed 100kmph
param *.node[*].scenario.nCars 4
param *.node[*].scenario.oscillationAmplitude "35 kmph"
param *.node[*].scenario.ploegH "0.5 s"
param *.node[*].scenario.ploegKd 0.7
param *.node[*].scenario.ploegKp 0.2
param *.node[*].scenario.startBraking "55 s"
param *.node[*].scenario.startOscillating "55 s"
param *.node[*].scenario.stopOscillating "100 s"
param *.node[*].scenario.useBrakingDisturbance false
param *.node[*].scenario.useControllerAcceleration true
param *.node[*].scenario.useRealisticEngine false
param *.node[*].scenario.useSinusoidalDisturbance true
param *.node[*].scenario_type "\"MyJoinManeuverScenario\""
param *.node[*].unicast.packetLossRate 0
param *.obstacles.debug false
param *.playgroundSizeX 65000m
param *.playgroundSizeY 25000m
param *.playgroundSizeZ 50m
param *.world.use2D false
param *.world.useTorus false

vector 1  Highway.node[0].appl  distance  ETV
vector 2  Highway.node[0].appl  relativeSpeed  ETV
vector 3  Highway.node[0].appl  nodeId  ETV
vector 7  Highway.node[0].appl  acceleration  ETV
vector 8  Highway.node[0].appl  controllerAcceleration  ETV
vector 4  Highway.node[0].appl  speed  ETV
vector 5  Highway.node[0].appl  posx  ETV
vector 6  Highway.node[0].appl  posy  ETV
vector 24  Highway.node[1].appl  distance  ETV
vector 25  Highway.node[1].appl  relativeSpeed  ETV
vector 26  Highway.node[1].appl  nodeId  ETV
vector 30  Highway.node[1].appl  acceleration  ETV
vector 31  Highway.node[1].appl  controllerAcceleration  ETV
vector 27  Highway.node[1].appl  speed  ETV
vector 28  Highway.node[1].appl  posx  ETV
vector 29  Highway.node[1].appl  posy  ETV
vector 47  Highway.node[2].appl  distance  ETV
vector 48  Highway.node[2].appl  relativeSpeed  ETV
vector 49  Highway.node[2].appl  nodeId  ETV
vector 53  Highway.node[2].appl  acceleration  ETV
vector 54  Highway.node[2].appl  controllerAcceleration  ETV
vector 50  Highway.node[2].appl  speed  ETV
vector 51  Highway.node[2].appl  posx  ETV
vector 52  Highway.node[2].appl  posy  ETV
vector 70  Highway.node[3].appl  distance  ETV
vector 71  Highway.node[3].appl  relativeSpeed  ETV
vector 72  Highway.node[3].appl  nodeId  ETV
vector 76  Highway.node[3].appl  acceleration  ETV
vector 77  Highway.node[3].appl  controllerAcceleration  ETV
vector 73  Highway.node[3].appl  speed  ETV
vector 74  Highway.node[3].appl  posx  ETV
vector 75  Highway.node[3].appl  posy  ETV
vector 84  Highway.node[3].prot  frontDelay  ETV
vector 82  Highway.node[3].prot  frontDelayId  ETV
vector 61  Highway.node[2].prot  frontDelay  ETV
vector 59  Highway.node[2].prot  frontDelayId  ETV
vector 37  Highway.node[1].prot  leaderDelay  ETV
vector 35  Highway.node[1].prot  leaderDelayId  ETV
vector 38  Highway.node[1].prot  frontDelay  ETV
vector 36  Highway.node[1].prot  frontDelayId  ETV
vector 60  Highway.node[2].prot  leaderDelay  ETV
vector 58  Highway.node[2].prot  leaderDelayId  ETV
vector 83  Highway.node[3].prot  leaderDelay  ETV
vector 81  Highway.node[3].prot  leaderDelayId  ETV
vector 9  Highway.node[0].prot  nodeId  ETV
vector 10  Highway.node[0].prot  busyTime  ETV
vector 11  Highway.node[0].prot  collisions  ETV
vector 32  Highway.node[1].prot  nodeId  ETV
vector 33  Highway.node[1].prot  busyTime  ETV
vector 34  Highway.node[1].prot  collisions  ETV
vector 55  Highway.node[2].prot  nodeId  ETV
vector 56  Highway.node[2].prot  busyTime  ETV
vector 57  Highway.node[2].prot  collisions  ETV
vector 78  Highway.node[3].prot  nodeId  ETV
vector 79  Highway.node[3].prot  busyTime  ETV
vector 80  Highway.node[3].prot  collisions  ETV
vector 93  Highway.node[4].appl  distance  ETV
vector 94  Highway.node[4].appl  relativeSpeed  ETV
vector 95  Highway.node[4].appl  nodeId  ETV
vector 99  Highway.node[4].appl  acceleration  ETV
vector 100  Highway.node[4].appl  controllerAcceleration  ETV
vector 96  Highway.node[4].appl  speed  ETV
vector 97  Highway.node[4].appl  posx  ETV
vector 98  Highway.node[4].appl  posy  ETV
vector 101  Highway.node[4].prot  nodeId  ETV
vector 102  Highway.node[4].prot  busyTime  ETV
vector 103  Highway.node[4].prot  collisions  ETV
vector 106  Highway.node[4].prot  leaderDelay  ETV
vector 104  Highway.node[4].prot  leaderDelayId  ETV
vector 107  Highway.node[4].prot  frontDelay  ETV
vector 105  Highway.node[4].prot  frontDelayId  ETV
8	228	1.11	-0.00218518
8	388	1.21	-0.00213419
8	548	1.31	-0.00205408
8	708	1.41	-0.00195152
8	869	1.51	-0.00183238
8	1029	1.61	-0.00170178
8	1189	1.71	-0.00156412
8	1350	1.81	-0.00142314
8	1510	1.91	-0.00128196
8	1676	2.01	-0.00114315
8	1836	2.11	-0.00100877
8	1996	2.21	-0.000880447
8	2156	2.31	-0.000759381
8	2316	2.41	-0.000646445
8	2476	2.51	-0.000542204
8	2636	2.61	-0.000446965
8	2796	2.71	-0.000360819
8	2956	2.81	-0.000283678
8	3116	2.91	-0.000215307
8	3281	3.01	-0.000155357
8	3474	3.11	-0.000103391
8	3709	3.21	-5.89069e-05
8	3944	3.31	-2.13575e-05
8	4179	3.41	9.82919e-06
8	4414	3.51	3.52368e-05
8	4649	3.61	5.54479e-05
8	4884	3.71	7.10335e-05
8	5120	3.81	8.25451e-05
8	5355	3.91	9.05081e-05
8	5595	4.01	9.54172e-05
8	5830	4.11	9.7733e-05
8	6065	4.21	9.78798e-05
8	6300	4.31	9.62447e-05
8	6535	4.41	9.31771e-05
8	6770	4.51	8.89894e-05
8	7005	4.61	8.39579e-05
8	7240	4.71	7.83245e-05
8	7475	4.81	7.22983e-05
8	7710	4.91	6.6058e-05
8	7950	5.01	5.9754e-05
8	8185	5.11	5.35107e-05
8	8420	5.21	4.74294e-05
8	8655	5.31	4.15898e-05
8	8890	5.41	3.60534e-05
8	9125	5.51	3.0865e-05
8	9360	5.61	2.60551e-05
8	9595	5.71	2.16419e-05
8	9830	5.81	1.76335e-05
8	10065	5.91	1.40289e-05
8	10305	6.01	1.08202e-05
8	10540	6.11	7.99392e-06
8	10775	6.21	5.532e-06
8	11010	6.31	3.41315e-06
8	11245	6.41	1.61374e-06
8	11480	6.51	1.08654e-07
8	11715	6.61	-1.12799e-06
8	11950	6.71	-2.12224e-06
8	12185	6.81	-2.89981e-06
8	12420	6.91	-3.48567e-06
8	12660	7.01	-3.90376e-06
8	12895	7.11	-4.17673e-06
8	13130	7.21	-4.32574e-06
8	13365	7.31	-4.3704e-06
8	13600	7.41	-4.32865e-06
8	13835	7.51	-4.21676e-06
8	14070	7.61	-4.04934e-06
8	14305	7.71	-3.83937e-06
8	14540	7.81	-3.59826e-06
8	14775	7.91	-3.33592e-06
8	15015	8.01	-3.06089e-06
8	15250	8.11	-2.78036e-06
8	15485	8.21	-2.50036e-06
8	15720	8.31	-2.22582e-06
8	15955	8.41	-1.96068e-06
8	16190	8.51	-1.708e-06
8	16425	8.61	-1.47009e-06
8	16660	8.71	-1.24855e-06
8	16895	8.81	-1.04441e-06
8	17130	8.91	-8.58219e-07
8	17370	9.01	-6.90082e-07
8	17605	9.11	-5.39774e-07
8	17840	9.21	-4.06787e-07
8	18075	9.31	-2.90396e-07
8	18310	9.41	-1.89707e-07
8	18545	9.51	-1.03704e-07
8	18780	9.61	-3.12909e-08
8	19015	9.71	2.86736e-08
8	19250	9.81	7.73515e-08
8	19485	9.91	1.15897e-07
8	19725	10.01	1.45439e-07
8	19960	10.11	1.67065e-07
8	20195	10.21	1.81809e-07
8	20430	10.31	1.90644e-07
8	20665	10.41	1.94472e-07
8	20900	10.51	1.94125e-07
8	21135	10.61	1.90358e-07
8	21370	10.71	1.83853e-07
8	21605	10.81	1.75219e-07
8	21840	10.91	1.64994e-07
8	22080	11.01	1.53647e-07
8	22315	11.11	1.41582e-07
8	22550	11.21	1.29146e-07
8	22785	11.31	1.16627e-07
8	23020	11.41	1.04266e-07
8	23255	11.51	9.22547e-08
8	23490	11.61	8.07471e-08
8	23725	11.71	6.98584e-08
8	23960	11.81	5.96732e-08
8	24195	11.91	5.02471e-08
8	24435	12.01	4.16133e-08
8	24670	12.11	3.37845e-08
8	24905	12.21	2.67558e-08
8	25140	12.31	2.05102e-08
8	25375	12.41	1.50187e-08
8	25610	12.51	1.02442e-08
8	25845	12.61	6.14406e-09
8	26080	12.71	2.67022e-09
8	26315	12.81	-2.27374e-10
8	26550	12.91	-2.60059e-09
8	26791	13.01	-4.50058e-09
8	27360	13.11	-5.97851e-09
8	27595	13.21	-7.08376e-09
8	27830	13.31	-7.86322e-09
8	28065	13.41	-8.36167e-09
8	28300	13.51	-8.62066e-09
8	28535	13.61	-8.67857e-09
8	28770	13.71	-8.57057e-09
8	29005	13.81	-8.32792e-09
8	29240	13.91	-7.97975e-09
8	29480	14.01	-7.55058e-09
8	29715	14.11	-7.06351e-09
8	29950	14.21	-6.53699e-09
8	30185	14.31	-5.98774e-09
8	30420	14.41	-5.42997e-09
8	30655	14.51	-4.87468e-09
8	30890	14.61	-4.33182e-09
8	31125	14.71	-3.80886e-09
8	31360	14.81	-3.31148e-09
8	31595	14.91	-2.84395e-09
8	31835	15.01	-2.40981e-09
8	32070	15.11	-2.01013e-09
8	32305	15.21	-1.64633e-09
8	32540	15.31	-1.31806e-09
8	32775	15.41	-1.02531e-09
8	33010	15.51	-7.66676e-10
8	33245	15.61	-5.40723e-10
8	33480	15.71	-3.46034e-10
8	33715	15.81	-1.79767e-10
8	33950	15.91	-4.01457e-11
8	34190	16.01	7.49623e-11
8	34425	16.11	1.68043e-10
8	34660	16.21	2.41585e-10
8	34895	16.31	2.97362e-10
8	35130	16.41	3.37863e-10
8	35365	16.51	3.64864e-10
8	35600	16.61	3.80851e-10
8	35835	16.71	3.86891e-10
8	36070	16.81	3.84759e-10
8	36305	16.91	3.76232e-10
8	36545	17.01	3.62377e-10
8	36780	17.11	3.44613e-10
8	37015	17.21	3.24007e-10
8	37250	17.31	3.00915e-10
8	37485	17.41	2.76756e-10
8	37720	17.51	2.52243e-10
8	37955	17.61	2.27374e-10
8	38190	17.71	2.0286e-10
8	38425	17.81	1.79057e-10
8	38660	17.91	1.56319e-10
8	38900	18.01	1.35003e-10
8	39135	18.11	1.15108e-10
8	39370	18.21	9.66338e-11
8	39605	18.31	7.99361e-11
8	39840	18.41	6.46594e-11
8	40075	18.51	5.08038e-11
8	40310	18.61	3.83693e-11
8	40545	18.71	2.73559e-11
8	40780	18.81	1.77636e-11
8	41015	18.91	9.59233e-12
8	41255	19.01	2.84217e-12
8	41490	19.11	-2.84217e-12
8	41725	19.21	-7.4607e-12
8	41960	19.31	-1.13687e-11
8	42195	19.41	-1.42109e-11
8	42430	19.51	-1.63425e-11
8	42665	19.61	-1.77636e-11
8	42900	19.71	-1.84741e-11
8	43135	19.81	-1.88294e-11
8	43370	19.91	-1.88294e-11
8	43610	20.01	-1.88294e-11
8	43845	20.11	-1.81188e-11
8	44080	20.21	-1.7053e-11
8	44315	20.31	-1.63425e-11
8	44550	20.41	-1.52767e-11
8	44785	20.51	-1.45661e-11
8	45020	20.61	-1.35003e-11
8	45255	20.71	-1.27898e-11
8	45490	20.81	-1.1724e-11
8	45725	20.91	-1.10134e-11
8	45965	21.01	-9.9476e-12
8	46200	21.11	-9.23706e-12
8	46435	21.21	-8.17124e-12
8	46670	21.31	-7.4607e-12
8	46905	21.41	-6.39488e-12
8	47140	21.51	-5.68434e-12
8	47375	21.61	-4.61853e-12
8	47610	21.71	-3.90799e-12
8	47845	21.81	-2.84217e-12
8	48080	21.91	-2.13163e-12
8	48320	22.01	-1.06581e-12
8	48555	22.11	-3.55271e-13
8	48790	22.21	7.10543e-13
8	49025	22.31	1.42109e-12
8	49260	22.41	2.13163e-12
8	49495	22.51	2.84217e-12
8	49730	22.61	3.19744e-12
8	49965	22.71	3.90799e-12
8	50200	22.81	4.26326e-12
8	50435	22.91	4.61853e-12
8	50675	23.01	5.32907e-12
8	50910	23.11	5.68434e-12
8	51145	23.21	5.68434e-12
8	51380	23.31	6.03961e-12
8	51615	23.41	6.39488e-12
8	51850	23.51	6.75016e-12
8	52085	23.61	6.75016e-12
8	52320	23.71	7.10543e-12
8	52555	23.81	7.10543e-12
8	52790	23.91	7.4607e-12
8	53030	24.01	7.4607e-12
8	53265	24.11	7.81597e-12
8	53500	24.21	7.81597e-12
8	53735	24.31	7.81597e-12
8	53970	24.41	7.81597e-12
8	54205	24.51	8.17124e-12
8	54440	24.61	8.17124e-12
8	54675	24.71	8.17124e-12
8	54910	24.81	8.17124e-12
8	55145	24.91	8.17124e-12
8	55385	25.01	8.52651e-12
8	55620	25.11	8.52651e-12
8	55855	25.21	8.52651e-12
8	56090	25.31	8.52651e-12
8	56325	25.41	8.52651e-12
8	56560	25.51	8.52651e-12
8	56795	25.61	8.52651e-12
8	57030	25.71	8.52651e-12
8	57265	25.81	8.52651e-12
8	57500	25.91	8.52651e-12
8	57740	26.01	8.88178e-12
8	57975	26.11	8.88178e-12
8	58210	26.21	8.88178e-12
8	58445	26.31	8.88178e-12
8	58680	26.41	8.88178e-12
8	58915	26.51	8.88178e-12
8	59150	26.61	8.88178e-12
8	59385	26.71	8.88178e-12
8	59620	26.81	8.88178e-12
8	59855	26.91	8.88178e-12
8	60095	27.01	8.88178e-12
8	60330	27.11	8.88178e-12
8	60565	27.21	8.88178e-12
8	60800	27.31	8.88178e-12
8	61035	27.41	8.88178e-12
8	61270	27.51	8.88178e-12
8	61505	27.61	8.88178e-12
8	61740	27.71	8.88178e-12
8	61975	27.81	8.88178e-12
8	62210	27.91	8.88178e-12
8	62450	28.01	8.88178e-12
8	62685	28.11	8.88178e-12
8	62920	28.21	8.88178e-12
8	63155	28.31	8.88178e-12
8	63390	28.41	8.88178e-12
8	63625	28.51	8.88178e-12
8	63860	28.61	8.88178e-12
8	64095	28.71	8.88178e-12
8	64330	28.81	8.88178e-12
8	64565	28.91	8.88178e-12
8	64805	29.01	8.88178e-12
8	65040	29.11	8.88178e-12
8	65275	29.21	8.88178e-12
8	65510	29.31	8.88178e-12
8	65745	29.41	8.88178e-12
8	65980	29.51	8.88178e-12
8	66215	29.61	8.88178e-12
8	66450	29.71	8.88178e-12
8	66685	29.81	8.88178e-12
8	66920	29.91	8.88178e-12
8	67160	30.01	8.88178e-12
8	67395	30.11	8.88178e-12
8	67630	30.21	8.88178e-12
8	67865	30.31	8.88178e-12
8	68100	30.41	8.88178e-12
8	68335	30.51	8.88178e-12
8	68570	30.61	8.88178e-12
8	68805	30.71	8.88178e-12
8	69040	30.81	8.88178e-12
8	69275	30.91	8.88178e-12
8	69515	31.01	8.88178e-12
8	69750	31.11	8.88178e-12
8	69985	31.21	8.88178e-12
8	70220	31.31	8.88178e-12
8	70455	31.41	8.88178e-12
8	70690	31.51	8.88178e-12
8	70925	31.61	8.88178e-12
8	71160	31.71	8.88178e-12
8	71395	31.81	8.88178e-12
8	71630	31.91	8.88178e-12
8	71870	32.01	8.88178e-12
8	72105	32.11	8.88178e-12
8	72340	32.21	8.88178e-12
8	72575	32.31	8.88178e-12
8	72810	32.41	8.88178e-12
8	73045	32.51	8.88178e-12
8	73280	32.61	8.88178e-12
8	73515	32.71	8.88178e-12
8	73750	32.81	8.88178e-12
8	73985	32.91	8.88178e-12
8	74225	33.01	8.88178e-12
8	74460	33.11	8.88178e-12
8	74695	33.21	8.88178e-12
8	74930	33.31	8.88178e-12
8	75165	33.41	8.88178e-12
8	75400	33.51	8.88178e-12
8	75635	33.61	8.88178e-12
8	75870	33.71	8.88178e-12
8	76105	33.81	8.88178e-12
8	76340	33.91	8.88178e-12
8	76580	34.01	8.88178e-12
8	76815	34.11	8.88178e-12
8	77050	34.21	8.88178e-12
8	77285	34.31	8.88178e-12
8	77520	34.41	8.88178e-12
8	77755	34.51	8.88178e-12
8	77990	34.61	8.88178e-12
8	78225	34.71	8.88178e-12
8	78460	34.81	8.88178e-12
8	78695	34.91	8.88178e-12
8	78935	35.01	8.88178e-12
8	79170	35.11	8.88178e-12
8	79405	35.21	8.88178e-12
8	79640	35.31	8.88178e-12
8	79875	35.41	8.88178e-12
8	80110	35.51	8.88178e-12
8	80345	35.61	8.88178e-12
8	80580	35.71	8.88178e-12
8	80815	35.81	8.88178e-12
8	81050	35.91	8.88178e-12
8	81290	36.01	8.88178e-12
8	81525	36.11	8.88178e-12
8	81760	36.21	8.88178e-12
8	81995	36.31	8.88178e-12
8	82230	36.41	8.88178e-12
8	82465	36.51	8.88178e-12
8	82700	36.61	8.88178e-12
8	82935	36.71	8.88178e-12
8	83170	36.81	8.88178e-12
8	83405	36.91	8.88178e-12
8	83645	37.01	8.88178e-12
8	83880	37.11	8.88178e-12
8	84115	37.21	8.88178e-12
8	84350	37.31	8.88178e-12
8	84585	37.41	8.88178e-12
8	84820	37.51	8.88178e-12
8	85055	37.61	8.88178e-12
8	85290	37.71	8.88178e-12
8	85525	37.81	8.88178e-12
8	85760	37.91	8.88178e-12
8	86000	38.01	8.88178e-12
8	86235	38.11	8.88178e-12
8	86470	38.21	8.88178e-12
8	86705	38.31	8.88178e-12
8	86940	38.41	8.88178e-12
8	87175	38.51	8.88178e-12
8	87410	38.61	8.88178e-12
8	87645	38.71	8.88178e-12
8	87880	38.81	8.88178e-12
8	88115	38.91	8.88178e-12
8	88355	39.01	8.88178e-12
8	88590	39.11	8.88178e-12
8	88825	39.21	8.88178e-12
8	89060	39.31	8.88178e-12
8	89295	39.41	8.88178e-12
8	89530	39.51	8.88178e-12
8	89765	39.61	8.88178e-12
8	90000	39.71	8.88178e-12
8	90235	39.81	8.88178e-12
8	90470	39.91	8.88178e-12
8	90710	40.01	8.88178e-12
8	90945	40.11	8.88178e-12
8	91180	40.21	8.88178e-12
8	91415	40.31	8.88178e-12
8	91650	40.41	8.88178e-12
8	91885	40.51	8.88178e-12
8	92120	40.61	8.88178e-12
8	92355	40.71	8.88178e-12
8	92590	40.81	8.88178e-12
8	92825	40.91	8.88178e-12
8	93065	41.01	8.88178e-12
8	93300	41.11	8.88178e-12
8	93535	41.21	8.88178e-12
8	93770	41.31	8.88178e-12
8	94005	41.41	8.88178e-12
8	94240	41.51	8.88178e-12
8	94475	41.61	8.88178e-12
8	94710	41.71	8.88178e-12
8	94945	41.81	8.88178e-12
8	95180	41.91	8.88178e-12
8	95420	42.01	8.88178e-12
8	95655	42.11	8.88178e-12
8	95890	42.21	8.88178e-12
8	96125	42.31	8.88178e-12
8	96360	42.41	8.88178e-12
8	96595	42.51	8.88178e-12
8	96830	42.61	8.88178e-12
8	97065	42.71	8.88178e-12
8	97300	42.81	8.88178e-12
8	97535	42.91	8.88178e-12
8	97775	43.01	8.88178e-12
8	98010	43.11	8.88178e-12
8	98245	43.21	8.88178e-12
8	98480	43.31	8.88178e-12
8	98715	43.41	8.88178e-12
8	98950	43.51	8.88178e-12
8	99185	43.61	8.88178e-12
8	99420	43.71	8.88178e-12
8	99655	43.81	8.88178e-12
8	99890	43.91	8.88178e-12
8	100130	44.01	8.88178e-12
8	100365	44.11	8.88178e-12
8	100600	44.21	8.88178e-12
8	100835	44.31	8.88178e-12
8	101070	44.41	8.88178e-12
8	101305	44.51	8.88178e-12
8	102122	44.61	8.88178e-12
8	102618	44.71	8.88178e-12
8	102853	44.81	8.88178e-12
8	103088	44.91	8.88178e-12
8	103328	45.01	8.88178e-12
8	103563	45.11	8.88178e-12
8	103798	45.21	8.88178e-12
8	104033	45.31	8.88178e-12
8	104268	45.41	8.88178e-12
8	104503	45.51	8.88178e-12
8	104738	45.61	8.88178e-12
8	104973	45.71	8.88178e-12
8	105208	45.81	8.88178e-12
8	105443	45.91	8.88178e-12
8	105683	46.01	8.88178e-12
8	105918	46.11	8.88178e-12
8	106153	46.21	8.88178e-12
8	106388	46.31	8.88178e-12
8	106623	46.41	8.88178e-12
8	106858	46.51	8.88178e-12
8	107093	46.61	8.88178e-12
8	107328	46.71	8.88178e-12
8	107563	46.81	8.88178e-12
8	107798	46.91	8.88178e-12
8	108038	47.01	8.88178e-12
8	108273	47.11	8.88178e-12
8	108508	47.21	8.88178e-12
8	108743	47.31	8.88178e-12
8	108978	47.41	8.88178e-12
8	109213	47.51	8.88178e-12
8	109448	47.61	8.88178e-12
8	109683	47.71	8.88178e-12
8	109918	47.81	8.88178e-12
8	110153	47.91	8.88178e-12
8	110393	48.01	8.88178e-12
8	110628	48.11	8.88178e-12
8	110863	48.21	8.88178e-12
8	111098	48.31	8.88178e-12
8	111333	48.41	8.88178e-12
8	111568	48.51	8.88178e-12
8	111803	48.61	8.88178e-12
8	112038	48.71	8.88178e-12
8	112273	48.81	8.88178e-12
8	112508	48.91	8.88178e-12
8	112748	49.01	8.88178e-12
8	112983	49.11	8.88178e-12
8	113218	49.21	8.88178e-12
8	113453	49.31	8.88178e-12
8	113688	49.41	8.88178e-12
8	113923	49.51	8.88178e-12
8	114158	49.61	8.88178e-12
8	114393	49.71	8.88178e-12
8	114628	49.81	8.88178e-12
8	114863	49.91	8.88178e-12
8	115103	50.01	8.88178e-12
8	115338	50.11	8.88178e-12
8	115573	50.21	8.88178e-12
8	115808	50.31	8.88178e-12
8	116043	50.41	8.88178e-12
8	116278	50.51	8.88178e-12
8	116513	50.61	8.88178e-12
8	116748	50.71	8.88178e-12
8	116983	50.81	8.88178e-12
8	117218	50.91	8.88178e-12
8	117458	51.01	8.88178e-12
8	117693	51.11	8.88178e-12
8	117928	51.21	8.88178e-12
8	118163	51.31	8.88178e-12
8	118398	51.41	8.88178e-12
8	118633	51.51	8.88178e-12
8	118868	51.61	8.88178e-12
8	119103	51.71	8.88178e-12
8	119338	51.81	8.88178e-12
8	119573	51.91	8.88178e-12
8	119813	52.01	8.88178e-12
8	120048	52.11	8.88178e-12
8	120283	52.21	8.88178e-12
8	120518	52.31	8.88178e-12
8	120753	52.41	8.88178e-12
8	120988	52.51	8.88178e-12
8	121223	52.61	8.88178e-12
8	121458	52.71	8.88178e-12
8	121693	52.81	8.88178e-12
8	121928	52.91	8.88178e-12
8	122168	53.01	8.88178e-12
8	122403	53.11	8.88178e-12
8	122638	53.21	8.88178e-12
8	122873	53.31	8.88178e-12
8	123108	53.41	8.88178e-12
8	123343	53.51	8.88178e-12
8	123578	53.61	8.88178e-12
8	123813	53.71	8.88178e-12
8	124048	53.81	8.88178e-12
8	124283	53.91	8.88178e-12
8	124523	54.01	8.88178e-12
8	124758	54.11	8.88178e-12
8	124993	54.21	8.88178e-12
8	125228	54.31	8.88178e-12
8	125463	54.41	8.88178e-12
8	125698	54.51	8.88178e-12
8	125933	54.61	8.88178e-12
8	126168	54.71	8.88178e-12
8	126403	54.81	8.88178e-12
8	126638	54.91	8.88178e-12
8	126879	55.01	8.88178e-12
8	127115	55.11	1.2185
8	127351	55.21	1.5
8	127587	55.31	1.5
8	127823	55.41	1.5
8	128059	55.51	1.5
8	128295	55.61	1.5
8	128531	55.71	1.5
8	128767	55.81	1.5
8	129003	55.91	1.5
8	129244	56.01	1.5
8	129480	56.11	1.5
8	129716	56.21	1.5
8	129952	56.31	1.5
8	130188	56.41	1.5
8	130424	56.51	1.5
8	130660	56.61	1.5
8	130896	56.71	1.5
8	131132	56.81	1.5
8	131368	56.91	1.5
8	131609	57.01	1.5
8	131845	57.11	1.5
8	132081	57.21	1.19532
8	132317	57.31	-0.110135
8	132553	57.41	-1.43483
8	132789	57.51	-1.5
8	133025	57.61	-1.5
8	133261	57.71	-1.5
8	133497	57.81	-1.5
8	133733	57.91	-1.5
8	133974	58.01	-1.5
8	134210	58.11	-1.5
8	134446	58.21	-1.5
8	134682	58.31	-1.5
8	134918	58.41	-1.5
8	135154	58.51	-1.5
8	135390	58.61	-1.5
8	135626	58.71	-1.5
8	135862	58.81	-1.5
8	136098	58.91	-1.5
8	136339	59.01	-1.5
8	136575	59.11	-1.5
8	136811	59.21	-1.5
8	137047	59.31	-1.5
8	137283	59.41	-1.5
8	137519	59.51	-1.5
8	137755	59.61	-1.5
8	137991	59.71	-1.5
8	138227	59.81	-1.5
8	138463	59.91	-1.42922
8	138704	60.01	-0.0635706
8	138940	60.11	1.28626
8	139176	60.21	1.5
8	139412	60.31	1.5
8	139648	60.41	1.5
8	139884	60.51	1.5
8	140120	60.61	1.5
8	140356	60.71	1.5
8	140592	60.81	1.5
8	140828	60.91	1.5
8	141069	61.01	1.5
8	141305	61.11	1.5
8	141541	61.21	1.5
8	141777	61.31	1.5
8	142013	61.41	1.5
8	142249	61.51	1.5
8	142485	61.61	1.5
8	142721	61.71	1.5
8	142957	61.81	1.5
8	143193	61.91	1.5
8	143434	62.01	1.5
8	143670	62.11	1.5
8	143906	62.21	1.5
8	144142	62.31	0.533514
8	144378	62.41	-0.802365
8	144614	62.51	-1.5
8	144850	62.61	-1.5
8	145086	62.71	-1.5
8	145322	62.81	-1.5
8	145558	62.91	-1.5
8	145799	63.01	-1.5
8	146035	63.11	-1.5
8	146271	63.21	-1.5
8	146507	63.31	-1.5
8	146743	63.41	-1.5
8	146979	63.51	-1.5
8	147215	63.61	-1.5
8	147451	63.71	-1.5
8	147687	63.81	-1.5
8	147923	63.91	-1.5
8	148164	64.01	-1.5
8	148400	64.11	-1.5
8	148636	64.21	-1.5
8	148872	64.31	-1.5
8	149108	64.41	-1.5
8	149344	64.51	-1.5
8	149580	64.61	-1.5
8	149816	64.71	-1.5
8	150052	64.81	-1.5
8	150288	64.91	-0.936591
8	150529	65.01	0.423865
8	150765	65.11	1.5
8	151001	65.21	1.5
8	151237	65.31	1.5
8	151473	65.41	1.5
8	151709	65.51	1.5
8	151945	65.61	1.5
8	152181	65.71	1.5
8	152417	65.81	1.5
8	152653	65.91	1.5
8	152894	66.01	1.5
8	153130	66.11	1.5
8	153366	66.21	1.5
8	153602	66.31	1.5
8	153838	66.41	1.5
8	154074	66.51	1.5
8	154310	66.61	1.5
8	154546	66.71	1.5
8	154782	66.81	1.5
8	155018	66.91	1.5
8	155259	67.01	1.5
8	155495	67.11	1.5
8	155731	67.21	1.5
8	155967	67.31	0.912279
8	156203	67.41	-0.427673
8	156439	67.51	-1.5
8	156675	67.61	-1.5
8	156911	67.71	-1.5
8	157147	67.81	-1.5
8	157383	67.91	-1.5
8	157624	68.01	-1.5
8	157860	68.11	-1.5
8	158096	68.21	-1.5
8	158332	68.31	-1.5
8	158568	68.41	-1.5
8	158804	68.51	-1.5
8	159040	68.61	-1.5
8	159276	68.71	-1.5
8	159512	68.81	-1.5
8	159748	68.91	-1.5
8	159989	69.01	-1.5
8	160225	69.11	-1.5
8	160461	69.21	-1.5
8	160697	69.31	-1.5
8	160933	69.41	-1.5
8	161169	69.51	-1.5
8	161405	69.61	-1.5
8	161641	69.71	-1.5
8	161877	69.81	-1.5
8	162113	69.91	-0.633362
8	162354	70.01	0.723919
8	162590	70.11	1.5
8	162826	70.21	1.5
8	163062	70.31	1.5
8	163298	70.41	1.5
8	163534	70.51	1.5
8	163770	70.61	1.5
8	164006	70.71	1.5
8	164242	70.81	1.5
8	164478	70.91	1.5
8	164719	71.01	1.5
8	164955	71.11	1.5
8	165191	71.21	1.5
8	165427	71.31	1.5
8	165663	71.41	1.5
8	165899	71.51	1.5
8	166135	71.61	1.5
8	166371	71.71	1.5
8	166607	71.81	1.5
8	166843	71.91	1.5
8	167084	72.01	1.5
8	167320	72.11	1.5
8	167556	72.21	1.5
8	167792	72.31	1.1557
8	168028	72.41	-0.186836
8	168264	72.51	-1.5
8	168500	72.61	-1.5
8	168736	72.71	-1.5
8	168972	72.81	-1.5
8	169208	72.91	-1.5
8	169449	73.01	-1.5
8	169685	73.11	-1.5
8	169921	73.21	-1.5
8	170157	73.31	-1.5
8	170393	73.41	-1.5
8	170629	73.51	-1.5
8	170865	73.61	-1.5
8	171101	73.71	-1.5
8	171337	73.81	-1.5
8	171573	73.91	-1.5
8	171814	74.01	-1.5
8	172050	74.11	-1.5
8	172286	74.21	-1.5
8	172522	74.31	-1.5
8	172758	74.41	-1.5
8	172994	74.51	-1.5
8	173230	74.61	-1.5
8	173466	74.71	-1.5
8	173702	74.81	-1.5
8	173938	74.91	-0.438313
8	174179	75.01	0.916926
8	174415	75.11	1.5
8	174651	75.21	1.5
8	174887	75.31	1.5
8	175123	75.41	1.5
8	175359	75.51	1.5
8	175595	75.61	1.5
8	175831	75.71	1.5
8	176067	75.81	1.5
8	176303	75.91	1.5
8	176544	76.01	1.5
8	176780	76.11	1.5
8	177016	76.21	1.5
8	177252	76.31	1.5
8	177488	76.41	1.5
8	177724	76.51	1.5
8	177960	76.61	1.5
8	178196	76.71	1.5
8	178432	76.81	1.5
8	178668	76.91	1.5
8	178909	77.01	1.5
8	179145	77.11	1.5
8	179381	77.21	1.5
8	179617	77.31	1.31228
8	179853	77.41	-0.0319202
8	180089	77.51	-1.37805
8	180325	77.61	-1.5
8	180561	77.71	-1.5
8	180797	77.81	-1.5
8	181033	77.91	-1.5
8	181274	78.01	-1.5
8	181510	78.11	-1.5
8	181746	78.21	-1.5
8	181982	78.31	-1.5
8	182218	78.41	-1.5
8	182454	78.51	-1.5
8	182690	78.61	-1.5
8	182926	78.71	-1.5
8	183162	78.81	-1.5
8	183398	78.91	-1.5
8	183639	79.01	-1.5
8	183875	79.11	-1.5
8	184111	79.21	-1.5
8	184347	79.31	-1.5
8	184583	79.41	-1.5
8	184819	79.51	-1.5
8	185055	79.61	-1.5
8	185291	79.71	-1.5
8	185527	79.81	-1.5
8	185763	79.91	-0.320567
8	186004	80.01	1.03342
8	186240	80.11	1.5
8	186476	80.21	1.5
8	186712	80.31	1.5
8	186948	80.41	1.5
8	187184	80.51	1.5
8	187420	80.61	1.5
8	187656	80.71	1.5
8	187892	80.81	1.5
8	188128	80.91	1.5
8	188369	81.01	1.5
8	188605	81.11	1.5
8	188841	81.21	1.5
8	189077	81.31	1.5
8	189313	81.41	1.5
8	189549	81.51	1.5
8	189785	81.61	1.5
8	190021	81.71	1.5
8	190257	81.81	1.5
8	190493	81.91	1.5
8	190734	82.01	1.5
8	190970	82.11	1.5
8	191206	82.21	1.5
8	191442	82.31	1.40672
8	191678	82.41	0.0615169
8	191914	82.51	-1.28711
8	192150	82.61	-1.5
8	192386	82.71	-1.5
8	192622	82.81	-1.5
8	192858	82.91	-1.5
8	193099	83.01	-1.5
8	193335	83.11	-1.5
8	193571	83.21	-1.5
8	193807	83.31	-1.5
8	194043	83.41	-1.5
8	194279	83.51	-1.5
8	194515	83.61	-1.5
8	194751	83.71	-1.5
8	194987	83.81	-1.5
8	195223	83.91	-1.5
8	195464	84.01	-1.5
8	195700	84.11	-1.5
8	195936	84.21	-1.5
8	196172	84.31	-1.5
8	196408	84.41	-1.5
8	196644	84.51	-1.5
8	196880	84.61	-1.5
8	197116	84.71	-1.5
8	197352	84.81	-1.5
8	197588	84.91	-0.253762
8	197829	85.01	1.09942
8	198065	85.11	1.5
8	198301	85.21	1.5
8	198537	85.31	1.5
8	198773	85.41	1.5
8	199009	85.51	1.5
8	199245	85.61	1.5
8	199481	85.71	1.5
8	199717	85.81	1.5
8	199953	85.91	1.5
8	200194	86.01	1.5
8	200430	86.11	1.5
8	200666	86.21	1.5
8	200902	86.31	1.5
8	201138	86.41	1.5
8	201374	86.51	1.5
8	201610	86.61	1.5
8	201846	86.71	1.5
8	202082	86.81	1.5
8	202318	86.91	1.5
8	202559	87.01	1.5
8	202795	87.11	1.5
8	203031	87.21	1.5
8	203267	87.31	1.45977
8	203503	87.41	0.113999
8	203739	87.51	-1.23603
8	203975	87.61	-1.5
8	204211	87.71	-1.5
8	204447	87.81	-1.5
8	204683	87.91	-1.5
8	204924	88.01	-1.5
8	205160	88.11	-1.5
8	205396	88.21	-1.5
8	205632	88.31	-1.5
8	205868	88.41	-1.5
8	206104	88.51	-1.5
8	206340	88.61	-1.5
8	206576	88.71	-1.5
8	206812	88.81	-1.5
8	207048	88.91	-1.5
8	207289	89.01	-1.5
8	207525	89.11	-1.5
8	207761	89.21	-1.5
8	207997	89.31	-1.5
8	208233	89.41	-1.5
8	208469	89.51	-1.5
8	208705	89.61	-1.5
8	208941	89.71	-1.5
8	209177	89.81	-1.5
8	209413	89.91	-0.216308
8	209654	90.01	1.13622
8	209890	90.11	1.5
8	210126	90.21	1.5
8	210362	90.31	1.5
8	210598	90.41	1.5
8	210834	90.51	1.5
8	211070	90.61	1.5
8	211306	90.71	1.5
8	211542	90.81	1.5
8	211778	90.91	1.5
8	212019	91.01	1.5
8	212255	91.11	1.5
8	212491	91.21	1.5
8	212727	91.31	1.5
8	212963	91.41	1.5
8	213199	91.51	1.5
8	213435	91.61	1.5
8	213671	91.71	1.5
8	213907	91.81	1.5
8	214143	91.91	1.5
8	214384	92.01	1.5
8	214620	92.11	1.5
8	214856	92.21	1.5
8	215092	92.31	1.48842
8	215328	92.41	0.142348
8	215564	92.51	-1.20844
8	215800	92.61	-1.5
8	216036	92.71	-1.5
8	216272	92.81	-1.5
8	216508	92.91	-1.5
8	216749	93.01	-1.5
8	216985	93.11	-1.5
8	217221	93.21	-1.5
8	217457	93.31	-1.5
8	217693	93.41	-1.5
8	217929	93.51	-1.5
8	218165	93.61	-1.5
8	218401	93.71	-1.5
8	218637	93.81	-1.5
8	218873	93.91	-1.5
8	219114	94.01	-1.5
8	219350	94.11	-1.5
8	219586	94.21	-1.5
8	219822	94.31	-1.5
8	220058	94.41	-1.5
8	220294	94.51	-1.5
8	220530	94.61	-1.5
8	220766	94.71	-1.5
8	221002	94.81	-1.5
8	221238	94.91	-0.196125
8	221479	95.01	1.15599
8	221715	95.11	1.5
8	221951	95.21	1.5
8	222187	95.31	1.5
8	222423	95.41	1.5
8	222659	95.51	1.5
8	222895	95.61	1.5
8	223131	95.71	1.5
8	223367	95.81	1.5
8	223603	95.91	1.5
8	223844	96.01	1.5
8	224080	96.11	1.5
8	224316	96.21	1.5
8	224552	96.31	1.5
8	224788	96.41	1.5
8	225024	96.51	1.5
8	225260	96.61	1.5
8	225496	96.71	1.5
8	225732	96.81	1.5
8	225968	96.91	1.5
8	226209	97.01	1.5
8	226445	97.11	1.5
8	226681	97.21	1.5
8	226917	97.31	1.5
8	227153	97.41	0.1573
8	227389	97.51	-1.19389
8	227625	97.61	-1.5
8	227861	97.71	-1.5
8	228097	97.81	-1.5
8	228333	97.91	-1.5
8	228574	98.01	-1.5
8	228810	98.11	-1.5
8	229046	98.21	-1.5
8	229282	98.31	-1.5
8	229518	98.41	-1.5
8	229754	98.51	-1.5
8	229990	98.61	-1.5
8	230226	98.71	-1.5
8	230462	98.81	-1.5
8	230698	98.91	-1.5
8	230939	99.01	-1.5
8	231175	99.11	-1.5
8	231411	99.21	-1.5
8	231647	99.31	-1.5
8	231883	99.41	-1.5
8	232119	99.51	-1.5
8	232355	99.61	-1.5
8	232591	99.71	-1.5
8	232827	99.81	-1.5
8	233063	99.91	-0.185471
8	233304	100.01	1.1664
8	233539	100.11	1.26437
8	233774	100.21	1.32207
8	234009	100.31	1.34568
8	234244	100.41	1.34092
8	234479	100.51	1.31296
8	234714	100.61	1.26648
8	234949	100.71	1.20563
8	235184	100.81	1.13409
8	235419	100.91	1.05506
8	235659	101.01	0.971303
8	235894	101.11	0.885173
8	236129	101.21	0.798641
8	236364	101.31	0.71333
8	236599	101.41	0.630551
8	236834	101.51	0.551334
8	237069	101.61	0.47646
8	237304	101.71	0.406491
8	237539	101.81	0.341802
8	237774	101.91	0.282603
8	238014	102.01	0.228971
8	238249	102.11	0.180867
8	238484	102.21	0.138162
8	238719	102.31	0.10065
8	238954	102.41	0.0680721
8	239189	102.51	0.0401259
8	239424	102.61	0.0164807
8	239659	102.71	-0.0032123
8	239894	102.81	-0.0193098
8	240129	102.91	-0.032169
8	240369	103.01	-0.042141
8	240604	103.11	-0.0495657
8	240839	103.21	-0.0547675
8	241074	103.31	-0.0580526
8	241309	103.41	-0.0597062
8	241544	103.51	-0.0599919
8	241779	103.61	-0.0591502
8	242014	103.71	-0.0573989
8	242249	103.81	-0.0549327
8	242484	103.91	-0.0519242
8	242724	104.01	-0.048525
8	242959	104.11	-0.0448661
8	243194	104.21	-0.0410598
8	243429	104.31	-0.0372008
8	243664	104.41	-0.0333679
8	243899	104.51	-0.0296251
8	244134	104.61	-0.0260234
8	244369	104.71	-0.022602
8	244604	104.81	-0.0193898
8	244839	104.91	-0.0164069
8	245079	105.01	-0.0136657
8	245314	105.11	-0.0111718
8	245549	105.21	-0.00892556
8	245784	105.31	-0.00692278
8	246019	105.41	-0.00515563
8	246254	105.51	-0.00361349
8	246489	105.61	-0.00228358
8	246724	105.71	-0.00115163
8	246959	105.81	-0.00020239
8	247194	105.91	0.000579951
8	247434	106.01	0.00121134
8	247669	106.11	0.00170758
8	247904	106.21	0.00208403
8	248139	106.31	0.00235548
8	248374	106.41	0.00253591
8	248609	106.51	0.00263845
8	248844	106.61	0.00267524
8	249079	106.71	0.00265744
8	249314	106.81	0.00259517
8	249549	106.91	0.00249755
8	249789	107.01	0.00237266
8	250024	107.11	0.00222766
8	250259	107.21	0.00206875
8	250494	107.31	0.00190129
8	250729	107.41	0.0017298
8	250964	107.51	0.0015581
8	251199	107.61	0.0013893
8	251434	107.71	0.00122591
8	251669	107.81	0.00106989
8	251904	107.91	0.0009227
8	252144	108.01	0.000785407
8	252379	108.11	0.000658692
8	252614	108.21	0.000542928
8	252849	108.31	0.000438222
8	253084	108.41	0.000344468
8	253319	108.51	0.000261378
8	253554	108.61	0.000188528
8	253789	108.71	0.000125383
8	254024	108.81	7.13342e-05
8	254259	108.91	2.57156e-05
8	254499	109.01	-1.21687e-05
8	254734	109.11	-4.30288e-05
8	254969	109.21	-6.7573e-05
8	255204	109.31	-8.64959e-05
8	255439	109.41	-0.000100468
8	255674	109.51	-0.000110128
8	255909	109.61	-0.000116077
8	256144	109.71	-0.000118876
8	256379	109.81	-0.000119039
8	256614	109.91	-0.000117038
8	256854	110.01	-0.000113298
8	257089	110.11	-0.000108197
8	257324	110.21	-0.000102072
8	257559	110.31	-9.52168e-05
8	257794	110.41	-8.78853e-05
8	258029	110.51	-8.02945e-05
8	258264	110.61	-7.26274e-05
8	258499	110.71	-6.5035e-05
8	258734	110.81	-5.76401e-05
8	258969	110.91	-5.05399e-05
8	259209	111.01	-4.38088e-05
8	259444	111.11	-3.75012e-05
8	259679	111.21	-3.16541e-05
8	259914	111.31	-2.62898e-05
8	260149	111.41	-2.14176e-05
8	260384	111.51	-1.70366e-05
8	260619	111.61	-1.31371e-05
8	260854	111.71	-9.70247e-06
8	261089	111.81	-6.71088e-06
8	261324	111.91	-4.13637e-06
8	261564	112.01	-1.95019e-06
8	261799	112.11	-1.21777e-07
8	262034	112.21	1.38034e-06
8	262269	112.31	2.58784e-06
8	262504	112.41	3.532e-06
8	262739	112.51	4.24319e-06
8	262974	112.61	4.7505e-06
8	263209	112.71	5.08148e-06
8	263444	112.81	5.26185e-06
8	263679	112.91	5.31544e-06
8	263919	113.01	5.26407e-06
8	264154	113.11	5.12751e-06
8	264389	113.21	4.92351e-06
8	264624	113.31	4.66786e-06
8	264859	113.41	4.37442e-06
8	265094	113.51	4.05523e-06
8	265329	113.61	3.72065e-06
8	265564	113.71	3.37945e-06
8	265799	113.81	3.03893e-06
8	266034	113.91	2.70508e-06
8	266274	114.01	2.38269e-06
8	266509	114.11	2.07548e-06
8	266744	114.21	1.78623e-06
8	266979	114.31	1.51692e-06
8	267214	114.41	1.26877e-06
8	267449	114.51	1.04246e-06
8	267684	114.61	8.38097e-07
8	267919	114.71	6.5542e-07
8	268154	114.81	4.93806e-07
8	268389	114.91	3.5237e-07
8	268629	115.01	2.30022e-07
8	268864	115.11	1.25529e-07
8	269099	115.21	3.75568e-08
8	269334	115.31	-3.52848e-08
8	269569	115.41	-9.44073e-08
8	269804	115.51	-1.41215e-07
8	270039	115.61	-1.77081e-07
8	270274	115.71	-2.03327e-07
8	270509	115.81	-2.21212e-07
8	270744	115.91	-2.31916e-07
8	270984	116.01	-2.36537e-07
8	271219	116.11	-2.36086e-07
8	271454	116.21	-2.31481e-07
8	271689	116.31	-2.23552e-07
8	271924	116.41	-2.13037e-07
8	272159	116.51	-2.00591e-07
8	272394	116.61	-1.86783e-07
8	272629	116.71	-1.72105e-07
8	272864	116.81	-1.56977e-07
8	273099	116.91	-1.41752e-07
8	273339	117.01	-1.26719e-07
8	273574	117.11	-1.12114e-07
8	273809	117.21	-9.81228e-08
8	274044	117.31	-8.48843e-08
8	274279	117.41	-7.2502e-08
8	274514	117.51	-6.10438e-08
8	274749	117.61	-5.05491e-08
8	274984	117.71	-4.10331e-08
8	275219	117.81	-3.2491e-08
8	275454	117.91	-2.49003e-08
8	275694	118.01	-1.82268e-08
8	275929	118.11	-1.24256e-08
8	276164	118.21	-7.44365e-09
8	276399	118.31	-3.22302e-09
8	276634	118.41	2.97007e-10
8	276869	118.51	3.17932e-09
8	277104	118.61	5.48681e-09
8	277339	118.71	7.28164e-09
8	277574	118.81	8.62315e-09
8	277809	118.91	9.56888e-09
8	278049	119.01	1.01732e-08
8	278284	119.11	1.04865e-08
8	278519	119.21	1.05555e-08
8	278754	119.31	1.04226e-08
8	278989	119.41	1.0127e-08
8	279224	119.51	9.70246e-09
8	279459	119.61	9.18057e-09
8	279694	119.71	8.58726e-09
8	279929	119.81	7.94671e-09
8	280164	119.91	7.2788e-09
7	228	1.11	-0.000358191
7	388	1.21	-0.000681704
7	548	1.31	-0.00093487
7	708	1.41	-0.00112579
7	869	1.51	-0.00126221
7	1029	1.61	-0.00135149
7	1189	1.71	-0.00140049
7	1350	1.81	-0.00141557
7	1510	1.91	-0.00140255
7	1676	2.01	-0.00136671
7	1836	2.11	-0.0013128
7	1996	2.21	-0.00124502
7	2156	2.31	-0.0011671
7	2316	2.41	-0.00108223
7	2476	2.51	-0.000993208
7	2636	2.61	-0.000902362
7	2796	2.71	-0.000811651
7	2956	2.81	-0.000722679
7	3116	2.91	-0.000636729
7	3281	3.01	-0.0005548
7	3474	3.11	-0.000477639
7	3709	3.21	-0.000405773
7	3944	3.31	-0.00033954
7	4179	3.41	-0.000279116
7	4414	3.51	-0.000224541
7	4649	3.61	-0.000175743
7	4884	3.71	-0.00013256
7	5120	3.81	-9.47571e-05
7	5355	3.91	-6.2046e-05
7	5595	4.01	-3.40986e-05
7	5830	4.11	-1.05605e-05
7	6065	4.21	8.93844e-06
7	6300	4.31	2.4774e-05
7	6535	4.41	3.73203e-05
7	6770	4.51	4.69433e-05
7	7005	4.61	5.39956e-05
7	7240	4.71	5.88124e-05
7	7475	4.81	6.1709e-05
7	7710	4.91	6.29785e-05
7	7950	5.01	6.28903e-05
7	8185	5.11	6.169e-05
7	8420	5.21	5.95988e-05
7	8655	5.31	5.68144e-05
7	8890	5.41	5.35112e-05
7	9125	5.51	4.98416e-05
7	9360	5.61	4.59373e-05
7	9595	5.71	4.19105e-05
7	9830	5.81	3.78555e-05
7	10065	5.91	3.38499e-05
7	10305	6.01	2.99569e-05
7	10540	6.11	2.62259e-05
7	10775	6.21	2.26948e-05
7	11010	6.31	1.93911e-05
7	11245	6.41	1.6333e-05
7	11480	6.51	1.35314e-05
7	11715	6.61	1.09904e-05
7	11950	6.71	8.70882e-06
7	12185	6.81	6.6809e-06
7	12420	6.91	4.89747e-06
7	12660	7.01	3.3466e-06
7	12895	7.11	2.01432e-06
7	13130	7.21	8.85256e-07
7	13365	7.31	-5.68459e-08
7	13600	7.41	-8.28678e-07
7	13835	7.51	-1.44699e-06
7	14070	7.61	-1.92826e-06
7	14305	7.71	-2.28849e-06
7	14540	7.81	-2.54296e-06
7	14775	7.91	-2.7061e-06
7	15015	8.01	-2.79139e-06
7	15250	8.11	-2.8113e-06
7	15485	8.21	-2.77721e-06
7	15720	8.31	-2.69943e-06
7	15955	8.41	-2.58721e-06
7	16190	8.51	-2.44874e-06
7	16425	8.61	-2.29123e-06
7	16660	8.71	-2.12092e-06
7	16895	8.81	-1.94317e-06
7	17130	8.91	-1.7625e-06
7	17370	9.01	-1.58267e-06
7	17605	9.11	-1.40677e-06
7	17840	9.21	-1.23723e-06
7	18075	9.31	-1.07596e-06
7	18310	9.41	-9.24364e-07
7	18545	9.51	-7.83424e-07
7	18780	9.61	-6.53753e-07
7	19015	9.71	-5.35652e-07
7	19250	9.81	-4.2916e-07
7	19485	9.91	-3.34103e-07
7	19725	10.01	-2.5013e-07
7	19960	10.11	-1.76757e-07
7	20195	10.21	-1.13395e-07
7	20430	10.31	-5.93825e-08
7	20665	10.41	-1.40084e-08
7	20900	10.51	2.34657e-08
7	21135	10.61	5.3787e-08
7	21370	10.71	7.76954e-08
7	21605	10.81	9.59155e-08
7	21840	10.91	1.09142e-07
7	22080	11.01	1.18035e-07
7	22315	11.11	1.23212e-07
7	22550	11.21	1.2525e-07
7	22785	11.31	1.24675e-07
7	23020	11.41	1.21968e-07
7	23255	11.51	1.17559e-07
7	23490	11.61	1.11834e-07
7	23725	11.71	1.05132e-07
7	23960	11.81	9.77476e-08
7	24195	11.91	8.99373e-08
7	24435	12.01	8.19171e-08
7	24670	12.11	7.38677e-08
7	24905	12.21	6.59401e-08
7	25140	12.31	5.82538e-08
7	25375	12.41	5.09036e-08
7	25610	12.51	4.39606e-08
7	25845	12.61	3.74765e-08
7	26080	12.71	3.14852e-08
7	26315	12.81	2.60055e-08
7	26550	12.91	2.10438e-08
7	26791	13.01	1.65958e-08
7	27360	13.11	1.26498e-08
7	27595	13.21	9.18554e-09
7	27830	13.31	6.17888e-09
7	28065	13.41	3.60174e-09
7	28300	13.51	1.42322e-09
7	28535	13.61	-3.90088e-10
7	28770	13.71	-1.8705e-09
7	29005	13.81	-3.05107e-09
7	29240	13.91	-3.96518e-09
7	29480	14.01	-4.64375e-09
7	29715	14.11	-5.11768e-09
7	29950	14.21	-5.41434e-09
7	30185	14.31	-5.56071e-09
7	30420	14.41	-5.58096e-09
7	30655	14.51	-5.49747e-09
7	30890	14.61	-5.33085e-09
7	31125	14.71	-5.09743e-09
7	31360	14.81	-4.81464e-09
7	31595	14.91	-4.49667e-09
7	31835	15.01	-4.15525e-09
7	32070	15.11	-3.80034e-09
7	32305	15.21	-3.44151e-09
7	32540	15.31	-3.08518e-09
7	32775	15.41	-2.73772e-09
7	33010	15.51	-2.40306e-09
7	33245	15.61	-2.08544e-09
7	33480	15.71	-1.78773e-09
7	33715	15.81	-1.51132e-09
7	33950	15.91	-1.25766e-09
7	34190	16.01	-1.02673e-09
7	34425	16.11	-8.18901e-10
7	34660	16.21	-6.33804e-10
7	34895	16.31	-4.70735e-10
7	35130	16.41	-3.28271e-10
7	35365	16.51	-2.05702e-10
7	35600	16.61	-1.00897e-10
7	35835	16.71	-1.35003e-11
7	36070	16.81	5.82645e-11
7	36305	16.91	1.16174e-10
7	36545	17.01	1.61648e-10
7	36780	17.11	1.95755e-10
7	37015	17.21	2.20624e-10
7	37250	17.31	2.36966e-10
7	37485	17.41	2.45848e-10
7	37720	17.51	2.4869e-10
7	37955	17.61	2.46914e-10
7	38190	17.71	2.40874e-10
7	38425	17.81	2.31282e-10
7	38660	17.91	2.19913e-10
7	38900	18.01	2.05702e-10
7	39135	18.11	1.91491e-10
7	39370	18.21	1.7657e-10
7	39605	18.31	1.59872e-10
7	39840	18.41	1.44595e-10
7	40075	18.51	1.30385e-10
7	40310	18.61	1.16174e-10
7	40545	18.71	1.01963e-10
7	40780	18.81	8.7752e-11
7	41015	18.91	7.35412e-11
7	41255	19.01	6.21725e-11
7	41490	19.11	5.15143e-11
7	41725	19.21	4.08562e-11
7	41960	19.31	3.16192e-11
7	42195	19.41	2.45137e-11
7	42430	19.51	1.74083e-11
7	42665	19.61	1.03029e-11
7	42900	19.71	6.03961e-12
7	43135	19.81	2.4869e-12
7	43370	19.91	-1.06581e-12
7	43610	20.01	-4.61853e-12
7	43845	20.11	-8.17124e-12
7	44080	20.21	-8.88178e-12
7	44315	20.31	-8.88178e-12
7	44550	20.41	-8.88178e-12
7	44785	20.51	-8.88178e-12
7	45020	20.61	-8.88178e-12
7	45255	20.71	-8.88178e-12
7	45490	20.81	-8.88178e-12
7	45725	20.91	-8.88178e-12
7	45965	21.01	-8.88178e-12
7	46200	21.11	-8.88178e-12
7	46435	21.21	-8.88178e-12
7	46670	21.31	-8.88178e-12
7	46905	21.41	-8.88178e-12
7	47140	21.51	-8.88178e-12
7	47375	21.61	-8.88178e-12
7	47610	21.71	-8.88178e-12
7	47845	21.81	-8.88178e-12
7	48080	21.91	-8.88178e-12
7	48320	22.01	-8.88178e-12
7	48555	22.11	-8.88178e-12
7	48790	22.21	-8.17124e-12
7	49025	22.31	-7.4607e-12
7	49260	22.41	-6.75016e-12
7	49495	22.51	-6.03961e-12
7	49730	22.61	-5.68434e-12
7	49965	22.71	-4.9738e-12
7	50200	22.81	-4.61853e-12
7	50435	22.91	-4.26326e-12
7	50675	23.01	-3.55271e-12
7	50910	23.11	-3.19744e-12
7	51145	23.21	-3.19744e-12
7	51380	23.31	-2.84217e-12
7	51615	23.41	-2.4869e-12
7	51850	23.51	-2.13163e-12
7	52085	23.61	-2.13163e-12
7	52320	23.71	-1.77636e-12
7	52555	23.81	-1.77636e-12
7	52790	23.91	-1.42109e-12
7	53030	24.01	-1.42109e-12
7	53265	24.11	-1.06581e-12
7	53500	24.21	-1.06581e-12
7	53735	24.31	-1.06581e-12
7	53970	24.41	-1.06581e-12
7	54205	24.51	-7.10543e-13
7	54440	24.61	-7.10543e-13
7	54675	24.71	-7.10543e-13
7	54910	24.81	-7.10543e-13
7	55145	24.91	-7.10543e-13
7	55385	25.01	-3.55271e-13
7	55620	25.11	-3.55271e-13
7	55855	25.21	-3.55271e-13
7	56090	25.31	-3.55271e-13
7	56325	25.41	-3.55271e-13
7	56560	25.51	-3.55271e-13
7	56795	25.61	-3.55271e-13
7	57030	25.71	-3.55271e-13
7	57265	25.81	-3.55271e-13
7	57500	25.91	-3.55271e-13
7	57740	26.01	0
7	57975	26.11	0
7	58210	26.21	0
7	58445	26.31	0
7	58680	26.41	0
7	58915	26.51	0
7	59150	26.61	0
7	59385	26.71	0
7	59620	26.81	0
7	59855	26.91	0
7	60095	27.01	0
7	60330	27.11	0
7	60565	27.21	0
7	60800	27.31	0
7	61035	27.41	0
7	61270	27.51	0
7	61505	27.61	0
7	61740	27.71	0
7	61975	27.81	0
7	62210	27.91	0
7	62450	28.01	0
7	62685	28.11	0
7	62920	28.21	0
7	63155	28.31	0
7	63390	28.41	0
7	63625	28.51	0
7	63860	28.61	0
7	64095	28.71	0
7	64330	28.81	0
7	64565	28.91	0
7	64805	29.01	0
7	65040	29.11	0
7	65275	29.21	0
7	65510	29.31	0
7	65745	29.41	0
7	65980	29.51	0
7	66215	29.61	0
7	66450	29.71	0
7	66685	29.81	0
7	66920	29.91	0
7	67160	30.01	0
7	67395	30.11	0
7	67630	30.21	0
7	67865	30.31	0
7	68100	30.41	0
7	68335	30.51	0
7	68570	30.61	0
7	68805	30.71	0
7	69040	30.81	0
7	69275	30.91	0
7	69515	31.01	0
7	69750	31.11	0
7	69985	31.21	0
7	70220	31.31	0
7	70455	31.41	0
7	70690	31.51	0
7	70925	31.61	0
7	71160	31.71	0
7	71395	31.81	0
7	71630	31.91	0
7	71870	32.01	0
7	72105	32.11	0
7	72340	32.21	0
7	72575	32.31	0
7	72810	32.41	0
7	73045	32.51	0
7	73280	32.61	0
7	73515	32.71	0
7	73750	32.81	0
7	73985	32.91	0
7	74225	33.01	0
7	74460	33.11	0
7	74695	33.21	0
7	74930	33.31	0
7	75165	33.41	0
7	75400	33.51	0
7	75635	33.61	0
7	75870	33.71	0
7	76105	33.81	0
7	76340	33.91	0
7	76580	34.01	0
7	76815	34.11	0
7	77050	34.21	0
7	77285	34.31	0
7	77520	34.41	0
7	77755	34.51	0
7	77990	34.61	0
7	78225	34.71	0
7	78460	34.81	0
7	78695	34.91	0
7	78935	35.01	0
7	79170	35.11	0
7	79405	35.21	0
7	79640	35.31	0
7	79875	35.41	0
7	80110	35.51	0
7	80345	35.61	0
7	80580	35.71	0
7	80815	35.81	0
7	81050	35.91	0
7	81290	36.01	0
7	81525	36.11	0
7	81760	36.21	0
7	81995	36.31	0
7	82230	36.41	0
7	82465	36.51	0
7	82700	36.61	0
7	82935	36.71	0
7	83170	36.81	0
7	83405	36.91	0
7	83645	37.01	0
7	83880	37.11	0
7	84115	37.21	0
7	84350	37.31	0
7	84585	37.41	0
7	84820	37.51	0
7	85055	37.61	0
7	85290	37.71	0
7	85525	37.81	0
7	85760	37.91	0
7	86000	38.01	0
7	86235	38.11	0
7	86470	38.21	0
7	86705	38.31	0
7	86940	38.41	0
7	87175	38.51	0
7	87410	38.61	0
7	87645	38.71	0
7	87880	38.81	0
7	88115	38.91	0
7	88355	39.01	0
7	88590	39.11	0
7	88825	39.21	0
7	89060	39.31	0
7	89295	39.41	0
7	89530	39.51	0
7	89765	39.61	0
7	90000	39.71	0
7	90235	39.81	0
7	90470	39.91	0
7	90710	40.01	0
7	90945	40.11	0
7	91180	40.21	0
7	91415	40.31	0
7	91650	40.41	0
7	91885	40.51	0
7	92120	40.61	0
7	92355	40.71	0
7	92590	40.81	0
7	92825	40.91	0
7	93065	41.01	0
7	93300	41.11	0
7	93535	41.21	0
7	93770	41.31	0
7	94005	41.41	0
7	94240	41.51	0
7	94475	41.61	0
7	94710	41.71	0
7	94945	41.81	0
7	95180	41.91	0
7	95420	42.01	0
7	95655	42.11	0
7	95890	42.21	0
7	96125	42.31	0
7	96360	42.41	0
7	96595	42.51	0
7	96830	42.61	0
7	97065	42.71	0
7	97300	42.81	0
7	97535	42.91	0
7	97775	43.01	0
7	98010	43.11	0
7	98245	43.21	0
7	98480	43.31	0
7	98715	43.41	0
7	98950	43.51	0
7	99185	43.61	0
7	99420	43.71	0
7	99655	43.81	0
7	99890	43.91	0
7	100130	44.01	0
7	100365	44.11	0
7	100600	44.21	0
7	100835	44.31	0
7	101070	44.41	0
7	101305	44.51	0
7	102122	44.61	0
7	102618	44.71	0
7	102853	44.81	0
7	103088	44.91	0
7	103328	45.01	0
7	103563	45.11	0
7	103798	45.21	0
7	104033	45.31	0
7	104268	45.41	0
7	104503	45.51	0
7	104738	45.61	0
7	104973	45.71	0
7	105208	45.81	0
7	105443	45.91	0
7	105683	46.01	0
7	105918	46.11	0
7	106153	46.21	0
7	106388	46.31	0
7	106623	46.41	0
7	106858	46.51	0
7	107093	46.61	0
7	107328	46.71	0
7	107563	46.81	0
7	107798	46.91	0
7	108038	47.01	0
7	108273	47.11	0
7	108508	47.21	0
7	108743	47.31	0
7	108978	47.41	0
7	109213	47.51	0
7	109448	47.61	0
7	109683	47.71	0
7	109918	47.81	0
7	110153	47.91	0
7	110393	48.01	0
7	110628	48.11	0
7	110863	48.21	0
7	111098	48.31	0
7	111333	48.41	0
7	111568	48.51	0
7	111803	48.61	0
7	112038	48.71	0
7	112273	48.81	0
7	112508	48.91	0
7	112748	49.01	0
7	112983	49.11	0
7	113218	49.21	0
7	113453	49.31	0
7	113688	49.41	0
7	113923	49.51	0
7	114158	49.61	0
7	114393	49.71	0
7	114628	49.81	0
7	114863	49.91	0
7	115103	50.01	0
7	115338	50.11	0
7	115573	50.21	0
7	115808	50.31	0
7	116043	50.41	0
7	116278	50.51	0
7	116513	50.61	0
7	116748	50.71	0
7	116983	50.81	0
7	117218	50.91	0
7	117458	51.01	0
7	117693	51.11	0
7	117928	51.21	0
7	118163	51.31	0
7	118398	51.41	0
7	118633	51.51	0
7	118868	51.61	0
7	119103	51.71	0
7	119338	51.81	0
7	119573	51.91	0
7	119813	52.01	0
7	120048	52.11	0
7	120283	52.21	0
7	120518	52.31	0
7	120753	52.41	0
7	120988	52.51	0
7	121223	52.61	0
7	121458	52.71	0
7	121693	52.81	0
7	121928	52.91	0
7	122168	53.01	0
7	122403	53.11	0
7	122638	53.21	0
7	122873	53.31	0
7	123108	53.41	0
7	123343	53.51	0
7	123578	53.61	0
7	123813	53.71	0
7	124048	53.81	0
7	124283	53.91	0
7	124523	54.01	0
7	124758	54.11	0
7	124993	54.21	0
7	125228	54.31	0
7	125463	54.41	0
7	125698	54.51	0
7	125933	54.61	0
7	126168	54.71	0
7	126403	54.81	0
7	126638	54.91	0
7	126879	55.01	0
7	127115	55.11	0.0238922
7	127351	55.21	0.243325
7	127587	55.31	0.469089
7	127823	55.41	0.654294
7	128059	55.51	0.806226
7	128295	55.61	0.930864
7	128531	55.71	1.03311
7	128767	55.81	1.11699
7	129003	55.91	1.1858
7	129244	56.01	1.24224
7	129480	56.11	1.28855
7	129716	56.21	1.32654
7	129952	56.31	1.3577
7	130188	56.41	1.38326
7	130424	56.51	1.40424
7	130660	56.61	1.42144
7	130896	56.71	1.43555
7	131132	56.81	1.44713
7	131368	56.91	1.45663
7	131609	57.01	1.46442
7	131845	57.11	1.47081
7	132081	57.21	1.47008
7	132317	57.31	1.38318
7	132553	57.41	1.07822
7	132789	57.51	0.618113
7	133025	57.61	0.237591
7	133261	57.71	-0.0745705
7	133497	57.81	-0.330651
7	133733	57.91	-0.540727
7	133974	58.01	-0.713062
7	134210	58.11	-0.854437
7	134446	58.21	-0.970413
7	134682	58.31	-1.06555
7	134918	58.41	-1.1436
7	135154	58.51	-1.20763
7	135390	58.61	-1.26016
7	135626	58.71	-1.30324
7	135862	58.81	-1.33859
7	136098	58.91	-1.36759
7	136339	59.01	-1.39138
7	136575	59.11	-1.41089
7	136811	59.21	-1.4269
7	137047	59.31	-1.44003
7	137283	59.41	-1.45081
7	137519	59.51	-1.45964
7	137755	59.61	-1.46689
7	137991	59.71	-1.47284
7	138227	59.81	-1.47772
7	138463	59.91	-1.48033
7	138704	60.01	-1.43225
7	138940	60.11	-1.14873
7	139176	60.21	-0.698697
7	139412	60.31	-0.303697
7	139648	60.41	0.0203402
7	139884	60.51	0.286164
7	140120	60.61	0.504231
7	140356	60.71	0.683123
7	140592	60.81	0.829876
7	140828	60.91	0.950265
7	141069	61.01	1.04903
7	141305	61.11	1.13004
7	141541	61.21	1.19651
7	141777	61.31	1.25103
7	142013	61.41	1.29576
7	142249	61.51	1.33245
7	142485	61.61	1.36255
7	142721	61.71	1.38724
7	142957	61.81	1.4075
7	143193	61.91	1.42412
7	143434	62.01	1.43775
7	143670	62.11	1.44893
7	143906	62.21	1.45811
7	144142	62.31	1.44668
7	144378	62.41	1.24496
7	144614	62.51	0.854127
7	144850	62.61	0.431204
7	145086	62.71	0.0842598
7	145322	62.81	-0.200355
7	145558	62.91	-0.433839
7	145799	63.01	-0.625376
7	146035	63.11	-0.782504
7	146271	63.21	-0.911403
7	146507	63.31	-1.01715
7	146743	63.41	-1.10389
7	146979	63.51	-1.17505
7	147215	63.61	-1.23343
7	147451	63.71	-1.28132
7	147687	63.81	-1.32061
7	147923	63.91	-1.35283
7	148164	64.01	-1.37927
7	148400	64.11	-1.40096
7	148636	64.21	-1.41875
7	148872	64.31	-1.43335
7	149108	64.41	-1.44532
7	149344	64.51	-1.45515
7	149580	64.61	-1.4632
7	149816	64.71	-1.46981
7	150052	64.81	-1.47524
7	150288	64.91	-1.46864
7	150529	65.01	-1.33456
7	150765	65.11	-0.987352
7	151001	65.21	-0.540495
7	151237	65.31	-0.173916
7	151473	65.41	0.126806
7	151709	65.51	0.373502
7	151945	65.61	0.57588
7	152181	65.71	0.741899
7	152417	65.81	0.878093
7	152653	65.91	0.98982
7	152894	66.01	1.08147
7	153130	66.11	1.15666
7	153366	66.21	1.21834
7	153602	66.31	1.26894
7	153838	66.41	1.31045
7	154074	66.51	1.34451
7	154310	66.61	1.37244
7	154546	66.71	1.39536
7	154782	66.81	1.41416
7	155018	66.91	1.42958
7	155259	67.01	1.44223
7	155495	67.11	1.45261
7	155731	67.21	1.46112
7	155967	67.31	1.45658
7	156203	67.41	1.32081
7	156439	67.51	0.975569
7	156675	67.61	0.530829
7	156911	67.71	0.165987
7	157147	67.81	-0.13331
7	157383	67.91	-0.378838
7	157624	68.01	-0.580257
7	157860	68.11	-0.74549
7	158096	68.21	-0.881039
7	158332	68.31	-0.992237
7	158568	68.41	-1.08346
7	158804	68.51	-1.15829
7	159040	68.61	-1.21968
7	159276	68.71	-1.27004
7	159512	68.81	-1.31135
7	159748	68.91	-1.34524
7	159989	69.01	-1.37305
7	160225	69.11	-1.39585
7	160461	69.21	-1.41456
7	160697	69.31	-1.42991
7	160933	69.41	-1.4425
7	161169	69.51	-1.45283
7	161405	69.61	-1.46131
7	161641	69.71	-1.46826
7	161877	69.81	-1.47396
7	162113	69.91	-1.46165
7	162354	70.01	-1.27459
7	162590	70.11	-0.890728
7	162826	70.21	-0.46123
7	163062	70.31	-0.108891
7	163298	70.41	0.180149
7	163534	70.51	0.417262
7	163770	70.61	0.611778
7	164006	70.71	0.771349
7	164242	70.81	0.902252
7	164478	70.91	1.00964
7	164719	71.01	1.09773
7	164955	71.11	1.17
7	165191	71.21	1.22929
7	165427	71.31	1.27792
7	165663	71.41	1.31782
7	165899	71.51	1.35055
7	166135	71.61	1.3774
7	166371	71.71	1.39942
7	166607	71.81	1.41749
7	166843	71.91	1.43231
7	167084	72.01	1.44447
7	167320	72.11	1.45445
7	167556	72.21	1.46263
7	167792	72.31	1.46259
7	168028	72.41	1.36927
7	168264	72.51	1.05339
7	168500	72.61	0.59467
7	168736	72.71	0.218359
7	168972	72.81	-0.090347
7	169208	72.91	-0.343594
7	169449	73.01	-0.551344
7	169685	73.11	-0.721772
7	169921	73.21	-0.861582
7	170157	73.31	-0.976275
7	170393	73.41	-1.07036
7	170629	73.51	-1.14755
7	170865	73.61	-1.21087
7	171101	73.71	-1.26281
7	171337	73.81	-1.30542
7	171573	73.91	-1.34038
7	171814	74.01	-1.36905
7	172050	74.11	-1.39258
7	172286	74.21	-1.41188
7	172522	74.31	-1.42771
7	172758	74.41	-1.4407
7	172994	74.51	-1.45135
7	173230	74.61	-1.46009
7	173466	74.71	-1.46726
7	173702	74.81	-1.47314
7	173938	74.91	-1.45715
7	174179	75.01	-1.23602
7	174415	75.11	-0.828578
7	174651	75.21	-0.410245
7	174887	75.31	-0.0670659
7	175123	75.41	0.21446
7	175359	75.51	0.44541
7	175595	75.61	0.634869
7	175831	75.71	0.790291
7	176067	75.81	0.917791
7	176303	75.91	1.02239
7	176544	76.01	1.10819
7	176780	76.11	1.17858
7	177016	76.21	1.23632
7	177252	76.31	1.28369
7	177488	76.41	1.32255
7	177724	76.51	1.35443
7	177960	76.61	1.38058
7	178196	76.71	1.40204
7	178432	76.81	1.41964
7	178668	76.91	1.43407
7	178909	77.01	1.44592
7	179145	77.11	1.45563
7	179381	77.21	1.4636
7	179617	77.31	1.46646
7	179853	77.41	1.40044
7	180089	77.51	1.10584
7	180325	77.61	0.649194
7	180561	77.71	0.263087
7	180797	77.81	-0.0536542
7	181033	77.91	-0.313493
7	181274	78.01	-0.526651
7	181510	78.11	-0.701515
7	181746	78.21	-0.844964
7	181982	78.31	-0.962642
7	182218	78.41	-1.05918
7	182454	78.51	-1.13837
7	182690	78.61	-1.20334
7	182926	78.71	-1.25664
7	183162	78.81	-1.30036
7	183398	78.91	-1.33622
7	183639	79.01	-1.36565
7	183875	79.11	-1.38978
7	184111	79.21	-1.40958
7	184347	79.31	-1.42583
7	184583	79.41	-1.43915
7	184819	79.51	-1.45008
7	185055	79.61	-1.45905
7	185291	79.71	-1.46641
7	185527	79.81	-1.47244
7	185763	79.91	-1.45427
7	186004	80.01	-1.2126
7	186240	80.11	-0.790951
7	186476	80.21	-0.379378
7	186712	80.31	-0.0417442
7	186948	80.41	0.235233
7	187184	80.51	0.46245
7	187420	80.61	0.648848
7	187656	80.71	0.801759
7	187892	80.81	0.927199
7	188128	80.91	1.0301
7	188369	81.01	1.11452
7	188605	81.11	1.18377
7	188841	81.21	1.24058
7	189077	81.31	1.28719
7	189313	81.41	1.32542
7	189549	81.51	1.35678
7	189785	81.61	1.38251
7	190021	81.71	1.40362
7	190257	81.81	1.42093
7	190493	81.91	1.43514
7	190734	82.01	1.44679
7	190970	82.11	1.45635
7	191206	82.21	1.46419
7	191442	82.31	1.4688
7	191678	82.41	1.41925
7	191914	82.51	1.13782
7	192150	82.61	0.689693
7	192386	82.71	0.296311
7	192622	82.81	-0.0263994
7	192858	82.91	-0.291134
7	193099	83.01	-0.508309
7	193335	83.11	-0.686468
7	193571	83.21	-0.83262
7	193807	83.31	-0.952516
7	194043	83.41	-1.05087
7	194279	83.51	-1.13156
7	194515	83.61	-1.19775
7	194751	83.71	-1.25205
7	194987	83.81	-1.29659
7	195223	83.91	-1.33314
7	195464	84.01	-1.36311
7	195700	84.11	-1.38771
7	195936	84.21	-1.40788
7	196172	84.31	-1.42443
7	196408	84.41	-1.43801
7	196644	84.51	-1.44914
7	196880	84.61	-1.45828
7	197116	84.71	-1.46577
7	197352	84.81	-1.47192
7	197588	84.91	-1.45153
7	197829	85.01	-1.19842
7	198065	85.11	-0.768896
7	198301	85.21	-0.361285
7	198537	85.31	-0.0269018
7	198773	85.41	0.247409
7	199009	85.51	0.472439
7	199245	85.61	0.657042
7	199481	85.71	0.808481
7	199717	85.81	0.932713
7	199953	85.91	1.03463
7	200194	86.01	1.11823
7	200430	86.11	1.18682
7	200666	86.21	1.24308
7	200902	86.31	1.28924
7	201138	86.41	1.3271
7	201374	86.51	1.35816
7	201610	86.61	1.38364
7	201846	86.71	1.40455
7	202082	86.81	1.4217
7	202318	86.91	1.43576
7	202559	87.01	1.4473
7	202795	87.11	1.45677
7	203031	87.21	1.46454
7	203267	87.31	1.47012
7	203503	87.41	1.42982
7	203739	87.51	1.15579
7	203975	87.61	0.712447
7	204211	87.71	0.314977
7	204447	87.81	-0.0110868
7	204683	87.91	-0.278573
7	204924	88.01	-0.498004
7	205160	88.11	-0.678014
7	205396	88.21	-0.825685
7	205632	88.31	-0.946827
7	205868	88.41	-1.04621
7	206104	88.51	-1.12773
7	206340	88.61	-1.19461
7	206576	88.71	-1.24947
7	206812	88.81	-1.29448
7	207048	88.91	-1.3314
7	207289	89.01	-1.36169
7	207525	89.11	-1.38654
7	207761	89.21	-1.40692
7	207997	89.31	-1.42364
7	208233	89.41	-1.43736
7	208469	89.51	-1.44861
7	208705	89.61	-1.45785
7	208941	89.71	-1.46542
7	209177	89.81	-1.47163
7	209413	89.91	-1.44779
7	209654	90.01	-1.18868
7	209890	90.11	-0.755104
7	210126	90.21	-0.349971
7	210362	90.31	-0.0176207
7	210598	90.41	0.255022
7	210834	90.51	0.478685
7	211070	90.61	0.662166
7	211306	90.71	0.812684
7	211542	90.81	0.936162
7	211778	90.91	1.03746
7	212019	91.01	1.12055
7	212255	91.11	1.18872
7	212491	91.21	1.24464
7	212727	91.31	1.29052
7	212963	91.41	1.32815
7	213199	91.51	1.35902
7	213435	91.61	1.38435
7	213671	91.71	1.40513
7	213907	91.81	1.42217
7	214143	91.91	1.43615
7	214384	92.01	1.44762
7	214620	92.11	1.45703
7	214856	92.21	1.46475
7	215092	92.31	1.47086
7	215328	92.41	1.43555
7	215564	92.51	1.16551
7	215800	92.61	0.724751
7	216036	92.71	0.325071
7	216272	92.81	-0.00280644
7	216508	92.91	-0.27178
7	216749	93.01	-0.492432
7	216985	93.11	-0.673443
7	217221	93.21	-0.821935
7	217457	93.31	-0.943751
7	217693	93.41	-1.04368
7	217929	93.51	-1.12566
7	218165	93.61	-1.19291
7	218401	93.71	-1.24808
7	218637	93.81	-1.29334
7	218873	93.91	-1.33047
7	219114	94.01	-1.36092
7	219350	94.11	-1.38591
7	219586	94.21	-1.4064
7	219822	94.31	-1.42322
7	220058	94.41	-1.43701
7	220294	94.51	-1.44833
7	220530	94.61	-1.45761
7	220766	94.71	-1.46523
7	221002	94.81	-1.47147
7	221238	94.91	-1.44508
7	221479	95.01	-1.18287
7	221715	95.11	-0.747231
7	221951	95.21	-0.343512
7	222187	95.31	-0.0123218
7	222423	95.41	0.259369
7	222659	95.51	0.482251
7	222895	95.61	0.665091
7	223131	95.71	0.815084
7	223367	95.81	0.93813
7	223603	95.91	1.03907
7	223844	96.01	1.12188
7	224080	96.11	1.18981
7	224316	96.21	1.24553
7	224552	96.31	1.29125
7	224788	96.41	1.32875
7	225024	96.51	1.35952
7	225260	96.61	1.38476
7	225496	96.71	1.40546
7	225732	96.81	1.42244
7	225968	96.91	1.43638
7	226209	97.01	1.44781
7	226445	97.11	1.45718
7	226681	97.21	1.46488
7	226917	97.31	1.47119
7	227153	97.41	1.43852
7	227389	97.51	1.1706
7	227625	97.61	0.731207
7	227861	97.71	0.330367
7	228097	97.81	0.00153841
7	228333	97.91	-0.268216
7	228574	98.01	-0.489508
7	228810	98.11	-0.671044
7	229046	98.21	-0.819968
7	229282	98.31	-0.942137
7	229518	98.41	-1.04236
7	229754	98.51	-1.12457
7	229990	98.61	-1.19202
7	230226	98.71	-1.24735
7	230462	98.81	-1.29274
7	230698	98.91	-1.32997
7	230939	99.01	-1.36052
7	231175	99.11	-1.38558
7	231411	99.21	-1.40613
7	231647	99.31	-1.423
7	231883	99.41	-1.43683
7	232119	99.51	-1.44818
7	232355	99.61	-1.45749
7	232591	99.71	-1.46513
7	232827	99.81	-1.47139
7	233063	99.91	-1.44345
7	233304	100.01	-1.17964
7	233539	100.11	-0.747561
7	233774	100.21	-0.379701
7	234009	100.31	-0.0711165
7	234244	100.41	0.183306
7	234479	100.51	0.388732
7	234714	100.61	0.550282
7	234949	100.71	0.672939
7	235184	100.81	0.761491
7	235419	100.91	0.820476
7	235659	101.01	0.854148
7	235894	101.11	0.866452
7	236129	101.21	0.861004
7	236364	101.31	0.841092
7	236599	101.41	0.809672
7	236834	101.51	0.769374
7	237069	101.61	0.722517
7	237304	101.71	0.671118
7	237539	101.81	0.616917
7	237774	101.91	0.561387
7	238014	102.01	0.505765
7	238249	102.11	0.451064
7	238484	102.21	0.3981
7	238719	102.31	0.347511
7	238954	102.41	0.299777
7	239189	102.51	0.255242
7	239424	102.61	0.21413
7	239659	102.71	0.176563
7	239894	102.81	0.142578
7	240129	102.91	0.112141
7	240369	103.01	0.0851615
7	240604	103.11	0.0615011
7	240839	103.21	0.0409882
7	241074	103.31	0.0234254
7	241309	103.41	0.00859754
7	241544	103.51	-0.00372063
7	241779	103.61	-0.0137591
7	242014	103.71	-0.0217473
7	242249	103.81	-0.0279104
7	242484	103.91	-0.0324657
7	242724	104.01	-0.0356203
7	242959	104.11	-0.0375693
7	243194	104.21	-0.0384944
7	243429	104.31	-0.0385628
7	243664	104.41	-0.0379272
7	243899	104.51	-0.0367256
7	244134	104.61	-0.0350812
7	244369	104.71	-0.0331029
7	244604	104.81	-0.0308864
7	244839	104.91	-0.028514
7	245079	105.01	-0.0260565
7	245314	105.11	-0.0235731
7	245549	105.21	-0.021113
7	245784	105.31	-0.0187162
7	246019	105.41	-0.0164143
7	246254	105.51	-0.0142316
7	246489	105.61	-0.0121857
7	246724	105.71	-0.0102888
7	246959	105.81	-0.00854817
7	247194	105.91	-0.00696691
7	247434	106.01	-0.00554477
7	247669	106.11	-0.00427866
7	247904	106.21	-0.00316328
7	248139	106.31	-0.00219154
7	248374	106.41	-0.00135507
7	248609	106.51	-0.000644563
7	248844	106.61	-5.01418e-05
7	249079	106.71	0.00043839
7	249314	106.81	0.000831293
7	249549	106.91	0.0011387
7	249789	107.01	0.00137046
7	250024	107.11	0.001536
7	250259	107.21	0.00164425
7	250494	107.31	0.00170357
7	250729	107.41	0.00172167
7	250964	107.51	0.00170564
7	251199	107.61	0.0016619
7	251434	107.71	0.00159621
7	251669	107.81	0.00151369
7	251904	107.91	0.00141885
7	252144	108.01	0.00131559
7	252379	108.11	0.00120729
7	252614	108.21	0.0010968
7	252849	108.31	0.000986478
7	253084	108.41	0.000878285
7	253319	108.51	0.000773777
7	253554	108.61	0.000674165
7	253789	108.71	0.000580357
7	254024	108.81	0.000492993
7	254259	108.91	0.000412481
7	254499	109.01	0.000339035
7	254734	109.11	0.000272703
7	254969	109.21	0.000213397
7	255204	109.31	0.000160918
7	255439	109.41	0.00011498
7	255674	109.51	7.52329e-05
7	255909	109.61	4.12771e-05
7	256144	109.71	1.26812e-05
7	256379	109.81	-1.10049e-05
7	256614	109.91	-3.02384e-05
7	256854	110.01	-4.54741e-05
7	257089	110.11	-5.71572e-05
7	257324	110.21	-6.57162e-05
7	257559	110.31	-7.15588e-05
7	257794	110.41	-7.50684e-05
7	258029	110.51	-7.6601e-05
7	258264	110.61	-7.64844e-05
7	258499	110.71	-7.5017e-05
7	258734	110.81	-7.24676e-05
7	258969	110.91	-6.90765e-05
7	259209	111.01	-6.50557e-05
7	259444	111.11	-6.05904e-05
7	259679	111.21	-5.58405e-05
7	259914	111.31	-5.09424e-05
7	260149	111.41	-4.60106e-05
7	260384	111.51	-4.11396e-05
7	260619	111.61	-3.64057e-05
7	260854	111.71	-3.18694e-05
7	261089	111.81	-2.75764e-05
7	261324	111.91	-2.356e-05
7	261564	112.01	-1.98426e-05
7	261799	112.11	-1.64372e-05
7	262034	112.21	-1.33487e-05
7	262269	112.31	-1.05757e-05
7	262504	112.41	-8.11112e-06
7	262739	112.51	-5.94386e-06
7	262974	112.61	-4.05934e-06
7	263209	112.71	-2.44057e-06
7	263444	112.81	-1.06884e-06
7	263679	112.91	7.56209e-08
7	263919	113.01	1.01312e-06
7	264154	113.11	1.76403e-06
7	264389	113.21	2.3484e-06
7	264624	113.31	2.78566e-06
7	264859	113.41	3.09441e-06
7	265094	113.51	3.29219e-06
7	265329	113.61	3.39538e-06
7	265564	113.71	3.41914e-06
7	265799	113.81	3.37731e-06
7	266034	113.91	3.28242e-06
7	266274	114.01	3.1457e-06
7	266509	114.11	2.97712e-06
7	266744	114.21	2.78543e-06
7	266979	114.31	2.57822e-06
7	267214	114.41	2.36199e-06
7	267449	114.51	2.14224e-06
7	267684	114.61	1.92355e-06
7	267919	114.71	1.70965e-06
7	268154	114.81	1.50351e-06
7	268389	114.91	1.30744e-06
7	268629	115.01	1.12314e-06
7	268864	115.11	9.51805e-07
7	269099	115.21	7.94181e-07
7	269334	115.31	6.50629e-07
7	269569	115.41	5.21198e-07
7	269804	115.51	4.05671e-07
7	270039	115.61	3.03622e-07
7	270274	115.71	2.14462e-07
7	270509	115.81	1.37472e-07
7	270744	115.91	7.18479e-08
7	270984	116.01	1.67244e-08
7	271219	116.11	-2.87955e-08
7	271454	116.21	-6.56215e-08
7	271689	116.31	-9.4655e-08
7	271924	116.41	-1.16775e-07
7	272159	116.51	-1.32826e-07
7	272394	116.61	-1.43611e-07
7	272629	116.71	-1.49883e-07
7	272864	116.81	-1.5234e-07
7	273099	116.91	-1.51623e-07
7	273339	117.01	-1.48316e-07
7	273574	117.11	-1.42943e-07
7	273809	117.21	-1.35971e-07
7	274044	117.31	-1.27813e-07
7	274279	117.41	-1.18827e-07
7	274514	117.51	-1.09325e-07
7	274749	117.61	-9.95694e-08
7	274984	117.71	-8.97806e-08
7	275219	117.81	-8.014e-08
7	275454	117.91	-7.07935e-08
7	275694	118.01	-6.18563e-08
7	275929	118.11	-5.34154e-08
7	276164	118.21	-4.5533e-08
7	276399	118.31	-3.82503e-08
7	276634	118.41	-3.15897e-08
7	276869	118.51	-2.55589e-08
7	277104	118.61	-2.01531e-08
7	277339	118.71	-1.53577e-08
7	277574	118.81	-1.1147e-08
7	277809	118.91	-7.49374e-09
7	278049	119.01	-4.36238e-09
7	278284	119.11	-1.71525e-09
7	278519	119.21	4.86722e-10
7	278754	119.31	2.28439e-09
7	278989	119.41	3.71863e-09
7	279224	119.51	4.82885e-09
7	279459	119.61	5.65272e-09
7	279694	119.71	6.22755e-09
7	279929	119.81	6.58709e-09
7	280164	119.91	6.7633e-09
6	228	1.11	242.45
6	388	1.21	242.45
6	548	1.31	242.45
6	708	1.41	242.45
6	869	1.51	242.45
6	1029	1.61	242.45
6	1189	1.71	242.45
6	1350	1.81	242.45
6	1510	1.91	242.45
6	1676	2.01	242.45
6	1836	2.11	242.45
6	1996	2.21	242.45
6	2156	2.31	242.45
6	2316	2.41	242.45
6	2476	2.51	242.45
6	2636	2.61	242.45
6	2796	2.71	242.45
6	2956	2.81	242.45
6	3116	2.91	242.45
6	3281	3.01	242.45
6	3474	3.11	242.45
6	3709	3.21	242.45
6	3944	3.31	242.45
6	4179	3.41	242.45
6	4414	3.51	242.45
6	4649	3.61	242.45
6	4884	3.71	242.45
6	5120	3.81	242.45
6	5355	3.91	242.45
6	5595	4.01	242.45
6	5830	4.11	242.45
6	6065	4.21	242.45
6	6300	4.31	242.45
6	6535	4.41	242.45
6	6770	4.51	242.45
6	7005	4.61	242.45
6	7240	4.71	242.45
6	7475	4.81	242.45
6	7710	4.91	242.45
6	7950	5.01	242.45
6	8185	5.11	242.45
6	8420	5.21	242.45
6	8655	5.31	242.45
6	8890	5.41	242.45
6	9125	5.51	242.45
6	9360	5.61	242.45
6	9595	5.71	242.45
6	9830	5.81	242.45
6	10065	5.91	242.45
6	10305	6.01	242.45
6	10540	6.11	242.45
6	10775	6.21	242.45
6	11010	6.31	242.45
6	11245	6.41	242.45
6	11480	6.51	242.45
6	11715	6.61	242.45
6	11950	6.71	242.45
6	12185	6.81	242.45
6	12420	6.91	242.45
6	12660	7.01	242.45
6	12895	7.11	242.45
6	13130	7.21	242.45
6	13365	7.31	242.45
6	13600	7.41	242.45
6	13835	7.51	242.45
6	14070	7.61	242.45
6	14305	7.71	242.45
6	14540	7.81	242.45
6	14775	7.91	242.45
6	15015	8.01	242.45
6	15250	8.11	242.45
6	15485	8.21	242.45
6	15720	8.31	242.45
6	15955	8.41	242.45
6	16190	8.51	242.45
6	16425	8.61	242.45
6	16660	8.71	242.45
6	16895	8.81	242.45
6	17130	8.91	242.45
6	17370	9.01	242.45
6	17605	9.11	242.45
6	17840	9.21	242.45
6	18075	9.31	242.45
6	18310	9.41	242.45
6	18545	9.51	242.45
6	18780	9.61	242.45
6	19015	9.71	242.45
6	19250	9.81	242.45
6	19485	9.91	242.45
6	19725	10.01	242.45
6	19960	10.11	242.45
6	20195	10.21	242.45
6	20430	10.31	242.45
6	20665	10.41	242.45
6	20900	10.51	242.45
6	21135	10.61	242.45
6	21370	10.71	242.45
6	21605	10.81	242.45
6	21840	10.91	242.45
6	22080	11.01	242.45
6	22315	11.11	242.45
6	22550	11.21	242.45
6	22785	11.31	242.45
6	23020	11.41	242.45
6	23255	11.51	242.45
6	23490	11.61	242.45
6	23725	11.71	242.45
6	23960	11.81	242.45
6	24195	11.91	242.45
6	24435	12.01	242.45
6	24670	12.11	242.45
6	24905	12.21	242.45
6	25140	12.31	242.45
6	25375	12.41	242.45
6	25610	12.51	242.45
6	25845	12.61	242.45
6	26080	12.71	242.45
6	26315	12.81	242.45
6	26550	12.91	242.45
6	26791	13.01	242.45
6	27360	13.11	242.45
6	27595	13.21	242.45
6	27830	13.31	242.45
6	28065	13.41	242.45
6	28300	13.51	242.45
6	28535	13.61	242.45
6	28770	13.71	242.45
6	29005	13.81	242.45
6	29240	13.91	242.45
6	29480	14.01	242.45
6	29715	14.11	242.45
6	29950	14.21	242.45
6	30185	14.31	242.45
6	30420	14.41	242.45
6	30655	14.51	242.45
6	30890	14.61	242.45
6	31125	14.71	242.45
6	31360	14.81	242.45
6	31595	14.91	242.45
6	31835	15.01	242.45
6	32070	15.11	242.45
6	32305	15.21	242.45
6	32540	15.31	242.45
6	32775	15.41	242.45
6	33010	15.51	242.45
6	33245	15.61	242.45
6	33480	15.71	242.45
6	33715	15.81	242.45
6	33950	15.91	242.45
6	34190	16.01	242.45
6	34425	16.11	242.45
6	34660	16.21	242.45
6	34895	16.31	242.45
6	35130	16.41	242.45
6	35365	16.51	242.45
6	35600	16.61	242.45
6	35835	16.71	242.45
6	36070	16.81	242.45
6	36305	16.91	242.45
6	36545	17.01	242.45
6	36780	17.11	242.45
6	37015	17.21	242.45
6	37250	17.31	242.45
6	37485	17.41	242.45
6	37720	17.51	242.45
6	37955	17.61	242.45
6	38190	17.71	242.45
6	38425	17.81	242.45
6	38660	17.91	242.45
6	38900	18.01	242.45
6	39135	18.11	242.45
6	39370	18.21	242.45
6	39605	18.31	242.45
6	39840	18.41	242.45
6	40075	18.51	242.45
6	40310	18.61	242.45
6	40545	18.71	242.45
6	40780	18.81	242.45
6	41015	18.91	242.45
6	41255	19.01	242.45
6	41490	19.11	242.45
6	41725	19.21	242.45
6	41960	19.31	242.45
6	42195	19.41	242.45
6	42430	19.51	242.45
6	42665	19.61	242.45
6	42900	19.71	242.45
6	43135	19.81	242.45
6	43370	19.91	242.45
6	43610	20.01	242.45
6	43845	20.11	242.45
6	44080	20.21	242.45
6	44315	20.31	242.45
6	44550	20.41	242.45
6	44785	20.51	242.45
6	45020	20.61	242.45
6	45255	20.71	242.45
6	45490	20.81	242.45
6	45725	20.91	242.45
6	45965	21.01	242.45
6	46200	21.11	242.45
6	46435	21.21	242.45
6	46670	21.31	242.45
6	46905	21.41	242.45
6	47140	21.51	242.45
6	47375	21.61	242.45
6	47610	21.71	242.45
6	47845	21.81	242.45
6	48080	21.91	242.45
6	48320	22.01	242.45
6	48555	22.11	242.45
6	48790	22.21	242.45
6	49025	22.31	242.45
6	49260	22.41	242.45
6	49495	22.51	242.45
6	49730	22.61	242.45
6	49965	22.71	242.45
6	50200	22.81	242.45
6	50435	22.91	242.45
6	50675	23.01	242.45
6	50910	23.11	242.45
6	51145	23.21	242.45
6	51380	23.31	242.45
6	51615	23.41	242.45
6	51850	23.51	242.45
6	52085	23.61	242.45
6	52320	23.71	242.45
6	52555	23.81	242.45
6	52790	23.91	242.45
6	53030	24.01	242.45
6	53265	24.11	242.45
6	53500	24.21	242.45
6	53735	24.31	242.45
6	53970	24.41	242.45
6	54205	24.51	242.45
6	54440	24.61	242.45
6	54675	24.71	242.45
6	54910	24.81	242.45
6	55145	24.91	242.45
6	55385	25.01	242.45
6	55620	25.11	242.45
6	55855	25.21	242.45
6	56090	25.31	242.45
6	56325	25.41	242.45
6	56560	25.51	242.45
6	56795	25.61	242.45
6	57030	25.71	242.45
6	57265	25.81	242.45
6	57500	25.91	242.45
6	57740	26.01	242.45
6	57975	26.11	242.45
6	58210	26.21	242.45
6	58445	26.31	242.45
6	58680	26.41	242.45
6	58915	26.51	242.45
6	59150	26.61	242.45
6	59385	26.71	242.45
6	59620	26.81	242.45
6	59855	26.91	242.45
6	60095	27.01	242.45
6	60330	27.11	242.45
6	60565	27.21	242.45
6	60800	27.31	242.45
6	61035	27.41	242.45
6	61270	27.51	242.45
6	61505	27.61	242.45
6	61740	27.71	242.45
6	61975	27.81	242.45
6	62210	27.91	242.45
6	62450	28.01	242.45
6	62685	28.11	242.45
6	62920	28.21	242.45
6	63155	28.31	242.45
6	63390	28.41	242.45
6	63625	28.51	242.45
6	63860	28.61	242.45
6	64095	28.71	242.45
6	64330	28.81	242.45
6	64565	28.91	242.45
6	64805	29.01	242.45
6	65040	29.11	242.45
6	65275	29.21	242.45
6	65510	29.31	242.45
6	65745	29.41	242.45
6	65980	29.51	242.45
6	66215	29.61	242.45
6	66450	29.71	242.45
6	66685	29.81	242.45
6	66920	29.91	242.45
6	67160	30.01	242.45
6	67395	30.11	242.45
6	67630	30.21	242.45
6	67865	30.31	242.45
6	68100	30.41	242.45
6	68335	30.51	242.45
6	68570	30.61	242.45
6	68805	30.71	242.45
6	69040	30.81	242.45
6	69275	30.91	242.45
6	69515	31.01	242.45
6	69750	31.11	242.45
6	69985	31.21	242.45
6	70220	31.31	242.45
6	70455	31.41	242.45
6	70690	31.51	242.45
6	70925	31.61	242.45
6	71160	31.71	242.45
6	71395	31.81	242.45
6	71630	31.91	242.45
6	71870	32.01	242.45
6	72105	32.11	242.45
6	72340	32.21	242.45
6	72575	32.31	242.45
6	72810	32.41	242.45
6	73045	32.51	242.45
6	73280	32.61	242.45
6	73515	32.71	242.45
6	73750	32.81	242.45
6	73985	32.91	242.45
6	74225	33.01	242.45
6	74460	33.11	242.45
6	74695	33.21	242.45
6	74930	33.31	242.45
6	75165	33.41	242.45
6	75400	33.51	242.45
6	75635	33.61	242.45
6	75870	33.71	242.45
6	76105	33.81	242.45
6	76340	33.91	242.45
6	76580	34.01	242.45
6	76815	34.11	242.45
6	77050	34.21	242.45
6	77285	34.31	242.45
6	77520	34.41	242.45
6	77755	34.51	242.45
6	77990	34.61	242.45
6	78225	34.71	242.45
6	78460	34.81	242.45
6	78695	34.91	242.45
6	78935	35.01	242.45
6	79170	35.11	242.45
6	79405	35.21	242.45
6	79640	35.31	242.45
6	79875	35.41	242.45
6	80110	35.51	242.45
6	80345	35.61	242.45
6	80580	35.71	242.45
6	80815	35.81	242.45
6	81050	35.91	242.45
6	81290	36.01	242.45
6	81525	36.11	242.45
6	81760	36.21	242.45
6	81995	36.31	242.45
6	82230	36.41	242.45
6	82465	36.51	242.45
6	82700	36.61	242.45
6	82935	36.71	242.45
6	83170	36.81	242.45
6	83405	36.91	242.45
6	83645	37.01	242.45
6	83880	37.11	242.45
6	84115	37.21	242.45
6	84350	37.31	242.45
6	84585	37.41	242.45
6	84820	37.51	242.45
6	85055	37.61	242.45
6	85290	37.71	242.45
6	85525	37.81	242.45
6	85760	37.91	242.45
6	86000	38.01	242.45
6	86235	38.11	242.45
6	86470	38.21	242.45
6	86705	38.31	242.45
6	86940	38.41	242.45
6	87175	38.51	242.45
6	87410	38.61	242.45
6	87645	38.71	242.45
6	87880	38.81	242.45
6	88115	38.91	242.45
6	88355	39.01	242.45
6	88590	39.11	242.45
6	88825	39.21	242.45
6	89060	39.31	242.45
6	89295	39.41	242.45
6	89530	39.51	242.45
6	89765	39.61	242.45
6	90000	39.71	242.45
6	90235	39.81	242.45
6	90470	39.91	242.45
6	90710	40.01	242.45
6	90945	40.11	242.45
6	91180	40.21	242.45
6	91415	40.31	242.45
6	91650	40.41	242.45
6	91885	40.51	242.45
6	92120	40.61	242.45
6	92355	40.71	242.45
6	92590	40.81	242.45
6	92825	40.91	242.45
6	93065	41.01	242.45
6	93300	41.11	242.45
6	93535	41.21	242.45
6	93770	41.31	242.45
6	94005	41.41	242.45
6	94240	41.51	242.45
6	94475	41.61	242.45
6	94710	41.71	242.45
6	94945	41.81	242.45
6	95180	41.91	242.45
6	95420	42.01	242.45
6	95655	42.11	242.45
6	95890	42.21	242.45
6	96125	42.31	242.45
6	96360	42.41	242.45
6	96595	42.51	242.45
6	96830	42.61	242.45
6	97065	42.71	242.45
6	97300	42.81	242.45
6	97535	42.91	242.45
6	97775	43.01	242.45
6	98010	43.11	242.45
6	98245	43.21	242.45
6	98480	43.31	242.45
6	98715	43.41	242.45
6	98950	43.51	242.45
6	99185	43.61	242.45
6	99420	43.71	242.45
6	99655	43.81	242.45
6	99890	43.91	242.45
6	100130	44.01	242.45
6	100365	44.11	242.45
6	100600	44.21	242.45
6	100835	44.31	242.45
6	101070	44.41	242.45
6	101305	44.51	242.45
6	102122	44.61	242.45
6	102618	44.71	242.45
6	102853	44.81	242.45
6	103088	44.91	242.45
6	103328	45.01	242.45
6	103563	45.11	242.45
6	103798	45.21	242.45
6	104033	45.31	242.45
6	104268	45.41	242.45
6	104503	45.51	242.45
6	104738	45.61	242.45
6	104973	45.71	242.45
6	105208	45.81	242.45
6	105443	45.91	242.45
6	105683	46.01	242.45
6	105918	46.11	242.45
6	106153	46.21	242.45
6	106388	46.31	242.45
6	106623	46.41	242.45
6	106858	46.51	242.45
6	107093	46.61	242.45
6	107328	46.71	242.45
6	107563	46.81	242.45
6	107798	46.91	242.45
6	108038	47.01	242.45
6	108273	47.11	242.45
6	108508	47.21	242.45
6	108743	47.31	242.45
6	108978	47.41	242.45
6	109213	47.51	242.45
6	109448	47.61	242.45
6	109683	47.71	242.45
6	109918	47.81	242.45
6	110153	47.91	242.45
6	110393	48.01	242.45
6	110628	48.11	242.45
6	110863	48.21	242.45
6	111098	48.31	242.45
6	111333	48.41	242.45
6	111568	48.51	242.45
6	111803	48.61	242.45
6	112038	48.71	242.45
6	112273	48.81	242.45
6	112508	48.91	242.45
6	112748	49.01	242.45
6	112983	49.11	242.45
6	113218	49.21	242.45
6	113453	49.31	242.45
6	113688	49.41	242.45
6	113923	49.51	242.45
6	114158	49.61	242.45
6	114393	49.71	242.45
6	114628	49.81	242.45
6	114863	49.91	242.45
6	115103	50.01	242.45
6	115338	50.11	242.45
6	115573	50.21	242.45
6	115808	50.31	242.45
6	116043	50.41	242.45
6	116278	50.51	242.45
6	116513	50.61	242.45
6	116748	50.71	242.45
6	116983	50.81	242.45
6	117218	50.91	242.45
6	117458	51.01	242.45
6	117693	51.11	242.45
6	117928	51.21	242.45
6	118163	51.31	242.45
6	118398	51.41	242.45
6	118633	51.51	242.45
6	118868	51.61	242.45
6	119103	51.71	242.45
6	119338	51.81	242.45
6	119573	51.91	242.45
6	119813	52.01	242.45
6	120048	52.11	242.45
6	120283	52.21	242.45
6	120518	52.31	242.45
6	120753	52.41	242.45
6	120988	52.51	242.45
6	121223	52.61	242.45
6	121458	52.71	242.45
6	121693	52.81	242.45
6	121928	52.91	242.45
6	122168	53.01	242.45
6	122403	53.11	242.45
6	122638	53.21	242.45
6	122873	53.31	242.45
6	123108	53.41	242.45
6	123343	53.51	242.45
6	123578	53.61	242.45
6	123813	53.71	242.45
6	124048	53.81	242.45
6	124283	53.91	242.45
6	124523	54.01	242.45
6	124758	54.11	242.45
6	124993	54.21	242.45
6	125228	54.31	242.45
6	125463	54.41	242.45
6	125698	54.51	242.45
6	125933	54.61	242.45
6	126168	54.71	242.45
6	126403	54.81	242.45
6	126638	54.91	242.45
6	126879	55.01	242.45
6	127115	55.11	242.45
6	127351	55.21	242.45
6	127587	55.31	242.45
6	127823	55.41	242.45
6	128059	55.51	242.45
6	128295	55.61	242.45
6	128531	55.71	242.45
6	128767	55.81	242.45
6	129003	55.91	242.45
6	129244	56.01	242.45
6	129480	56.11	242.45
6	129716	56.21	242.45
6	129952	56.31	242.45
6	130188	56.41	242.45
6	130424	56.51	242.45
6	130660	56.61	242.45
6	130896	56.71	242.45
6	131132	56.81	242.45
6	131368	56.91	242.45
6	131609	57.01	242.45
6	131845	57.11	242.45
6	132081	57.21	242.45
6	132317	57.31	242.45
6	132553	57.41	242.45
6	132789	57.51	242.45
6	133025	57.61	242.45
6	133261	57.71	242.45
6	133497	57.81	242.45
6	133733	57.91	242.45
6	133974	58.01	242.45
6	134210	58.11	242.45
6	134446	58.21	242.45
6	134682	58.31	242.45
6	134918	58.41	242.45
6	135154	58.51	242.45
6	135390	58.61	242.45
6	135626	58.71	242.45
6	135862	58.81	242.45
6	136098	58.91	242.45
6	136339	59.01	242.45
6	136575	59.11	242.45
6	136811	59.21	242.45
6	137047	59.31	242.45
6	137283	59.41	242.45
6	137519	59.51	242.45
6	137755	59.61	242.45
6	137991	59.71	242.45
6	138227	59.81	242.45
6	138463	59.91	242.45
6	138704	60.01	242.45
6	138940	60.11	242.45
6	139176	60.21	242.45
6	139412	60.31	242.45
6	139648	60.41	242.45
6	139884	60.51	242.45
6	140120	60.61	242.45
6	140356	60.71	242.45
6	140592	60.81	242.45
6	140828	60.91	242.45
6	141069	61.01	242.45
6	141305	61.11	242.45
6	141541	61.21	242.45
6	141777	61.31	242.45
6	142013	61.41	242.45
6	142249	61.51	242.45
6	142485	61.61	242.45
6	142721	61.71	242.45
6	142957	61.81	242.45
6	143193	61.91	242.45
6	143434	62.01	242.45
6	143670	62.11	242.45
6	143906	62.21	242.45
6	144142	62.31	242.45
6	144378	62.41	242.45
6	144614	62.51	242.45
6	144850	62.61	242.45
6	145086	62.71	242.45
6	145322	62.81	242.45
6	145558	62.91	242.45
6	145799	63.01	242.45
6	146035	63.11	242.45
6	146271	63.21	242.45
6	146507	63.31	242.45
6	146743	63.41	242.45
6	146979	63.51	242.45
6	147215	63.61	242.45
6	147451	63.71	242.45
6	147687	63.81	242.45
6	147923	63.91	242.45
6	148164	64.01	242.45
6	148400	64.11	242.45
6	148636	64.21	242.45
6	148872	64.31	242.45
6	149108	64.41	242.45
6	149344	64.51	242.45
6	149580	64.61	242.45
6	149816	64.71	242.45
6	150052	64.81	242.45
6	150288	64.91	242.45
6	150529	65.01	242.45
6	150765	65.11	242.45
6	151001	65.21	242.45
6	151237	65.31	242.45
6	151473	65.41	242.45
6	151709	65.51	242.45
6	151945	65.61	242.45
6	152181	65.71	242.45
6	152417	65.81	242.45
6	152653	65.91	242.45
6	152894	66.01	242.45
6	153130	66.11	242.45
6	153366	66.21	242.45
6	153602	66.31	242.45
6	153838	66.41	242.45
6	154074	66.51	242.45
6	154310	66.61	242.45
6	154546	66.71	242.45
6	154782	66.81	242.45
6	155018	66.91	242.45
6	155259	67.01	242.45
6	155495	67.11	242.45
6	155731	67.21	242.45
6	155967	67.31	242.45
6	156203	67.41	242.45
6	156439	67.51	242.45
6	156675	67.61	242.45
6	156911	67.71	242.45
6	157147	67.81	242.45
6	157383	67.91	242.45
6	157624	68.01	242.45
6	157860	68.11	242.45
6	158096	68.21	242.45
6	158332	68.31	242.45
6	158568	68.41	242.45
6	158804	68.51	242.45
6	159040	68.61	242.45
6	159276	68.71	242.45
6	159512	68.81	242.45
6	159748	68.91	242.45
6	159989	69.01	242.45
6	160225	69.11	242.45
6	160461	69.21	242.45
6	160697	69.31	242.45
6	160933	69.41	242.45
6	161169	69.51	242.45
6	161405	69.61	242.45
6	161641	69.71	242.45
6	161877	69.81	242.45
6	162113	69.91	242.45
6	162354	70.01	242.45
6	162590	70.11	242.45
6	162826	70.21	242.45
6	163062	70.31	242.45
6	163298	70.41	242.45
6	163534	70.51	242.45
6	163770	70.61	242.45
6	164006	70.71	242.45
6	164242	70.81	242.45
6	164478	70.91	242.45
6	164719	71.01	242.45
6	164955	71.11	242.45
6	165191	71.21	242.45
6	165427	71.31	242.45
6	165663	71.41	242.45
6	165899	71.51	242.45
6	166135	71.61	242.45
6	166371	71.71	242.45
6	166607	71.81	242.45
6	166843	71.91	242.45
6	167084	72.01	242.45
6	167320	72.11	242.45
6	167556	72.21	242.45
6	167792	72.31	242.45
6	168028	72.41	242.45
6	168264	72.51	242.45
6	168500	72.61	242.45
6	168736	72.71	242.45
6	168972	72.81	242.45
6	169208	72.91	242.45
6	169449	73.01	242.45
6	169685	73.11	242.45
6	169921	73.21	242.45
6	170157	73.31	242.45
6	170393	73.41	242.45
6	170629	73.51	242.45
6	170865	73.61	242.45
6	171101	73.71	242.45
6	171337	73.81	242.45
6	171573	73.91	242.45
6	171814	74.01	242.45
6	172050	74.11	242.45
6	172286	74.21	242.45
6	172522	74.31	242.45
6	172758	74.41	242.45
6	172994	74.51	242.45
6	173230	74.61	242.45
6	173466	74.71	242.45
6	173702	74.81	242.45
6	173938	74.91	242.45
6	174179	75.01	242.45
6	174415	75.11	242.45
6	174651	75.21	242.45
6	174887	75.31	242.45
6	175123	75.41	242.45
6	175359	75.51	242.45
6	175595	75.61	242.45
6	175831	75.71	242.45
6	176067	75.81	242.45
6	176303	75.91	242.45
6	176544	76.01	242.45
6	176780	76.11	242.45
[...]
104	140967	60.954668	4
104	141208	61.05467	4
104	141444	61.154672	4
104	141680	61.254661	4
104	141916	61.354663	4
104	142152	61.454665	4
104	142388	61.554667	4
104	142624	61.654669	4
104	142860	61.754671	4
104	143096	61.854673	4
104	143332	61.954662	4
104	143573	62.054664	4
104	143809	62.154666	4
104	144045	62.254668	4
104	144281	62.35467	4
104	144517	62.454672	4
104	144753	62.554661	4
104	144989	62.654663	4
104	145225	62.754665	4
104	145461	62.854667	4
104	145697	62.954669	4
104	145938	63.054671	4
104	146174	63.154673	4
104	146410	63.254662	4
104	146646	63.354664	4
104	146882	63.454666	4
104	147118	63.554668	4
104	147354	63.65467	4
104	147590	63.754672	4
104	147826	63.854661	4
104	148062	63.954663	4
104	148303	64.054665	4
104	148539	64.154667	4
104	148775	64.254669	4
104	149011	64.354671	4
104	149247	64.454673	4
104	149483	64.554662	4
104	149719	64.654664	4
104	149955	64.754666	4
104	150191	64.854668	4
104	150427	64.95467	4
104	150668	65.054672	4
104	150904	65.154661	4
104	151140	65.254663	4
104	151376	65.354665	4
104	151612	65.454667	4
104	151848	65.554669	4
104	152084	65.654671	4
104	152320	65.754673	4
104	152556	65.854662	4
104	152792	65.954664	4
104	153033	66.054666	4
104	153269	66.154668	4
104	153505	66.25467	4
104	153741	66.354672	4
104	153977	66.454661	4
104	154213	66.554663	4
104	154449	66.654665	4
104	154685	66.754667	4
104	154921	66.854669	4
104	155157	66.954671	4
104	155398	67.054673	4
104	155634	67.154662	4
104	155870	67.254664	4
104	156106	67.354666	4
104	156342	67.454668	4
104	156578	67.55467	4
104	156814	67.654672	4
104	157050	67.754661	4
104	157286	67.854663	4
104	157522	67.954665	4
104	157763	68.054667	4
104	157999	68.154669	4
104	158235	68.254671	4
104	158471	68.354673	4
104	158707	68.454662	4
104	158943	68.554664	4
104	159179	68.654666	4
104	159415	68.754668	4
104	159651	68.85467	4
104	159887	68.954672	4
104	160128	69.054661	4
104	160364	69.154663	4
104	160600	69.254665	4
104	160836	69.354667	4
104	161072	69.454669	4
104	161308	69.554671	4
104	161544	69.654673	4
104	161780	69.754662	4
104	162016	69.854664	4
104	162252	69.954666	4
104	162493	70.054668	4
104	162729	70.15467	4
104	162965	70.254672	4
104	163201	70.354661	4
104	163437	70.454663	4
104	163673	70.554665	4
104	163909	70.654667	4
104	164145	70.754669	4
104	164381	70.854671	4
104	164617	70.954673	4
104	164858	71.054662	4
104	165094	71.154664	4
104	165330	71.254666	4
104	165566	71.354668	4
104	165802	71.45467	4
104	166038	71.554672	4
104	166274	71.654661	4
104	166510	71.754663	4
104	166746	71.854665	4
104	166982	71.954667	4
104	167223	72.054669	4
104	167459	72.154671	4
104	167695	72.254673	4
104	167931	72.354662	4
104	168167	72.454664	4
104	168403	72.554666	4
104	168639	72.654668	4
104	168875	72.75467	4
104	169111	72.854672	4
104	169347	72.954661	4
104	169588	73.054663	4
104	169824	73.154665	4
104	170060	73.254667	4
104	170296	73.354669	4
104	170532	73.454671	4
104	170768	73.554673	4
104	171004	73.654662	4
104	171240	73.754664	4
104	171476	73.854666	4
104	171712	73.954668	4
104	171953	74.05467	4
104	172189	74.154672	4
104	172425	74.254661	4
104	172661	74.354663	4
104	172897	74.454665	4
104	173133	74.554667	4
104	173369	74.654669	4
104	173605	74.754671	4
104	173841	74.854673	4
104	174077	74.954662	4
104	174318	75.054664	4
104	174554	75.154666	4
104	174790	75.254668	4
104	175026	75.35467	4
104	175262	75.454672	4
104	175498	75.554661	4
104	175734	75.654663	4
104	175970	75.754665	4
104	176206	75.854667	4
104	176442	75.954669	4
104	176683	76.054671	4
104	176919	76.154673	4
104	177155	76.254662	4
104	177391	76.354664	4
104	177627	76.454666	4
104	177863	76.554668	4
104	178099	76.65467	4
104	178335	76.754672	4
104	178571	76.854661	4
104	178807	76.954663	4
104	179048	77.054665	4
104	179284	77.154667	4
104	179520	77.254669	4
104	179756	77.354671	4
104	179992	77.454673	4
104	180228	77.554662	4
104	180464	77.654664	4
104	180700	77.754666	4
104	180936	77.854668	4
104	181172	77.95467	4
104	181413	78.054672	4
104	181649	78.154661	4
104	181885	78.254663	4
104	182121	78.354665	4
104	182357	78.454667	4
104	182593	78.554669	4
104	182829	78.654671	4
104	183065	78.754673	4
104	183301	78.854662	4
104	183537	78.954664	4
104	183778	79.054666	4
104	184014	79.154668	4
104	184250	79.25467	4
104	184486	79.354672	4
104	184722	79.454661	4
104	184958	79.554663	4
104	185194	79.654665	4
104	185430	79.754667	4
104	185666	79.854669	4
104	185902	79.954671	4
104	186143	80.054673	4
104	186379	80.154662	4
104	186615	80.254664	4
104	186851	80.354666	4
104	187087	80.454668	4
104	187323	80.55467	4
104	187559	80.654672	4
104	187795	80.754661	4
104	188031	80.854663	4
104	188267	80.954665	4
104	188508	81.054667	4
104	188744	81.154669	4
104	188980	81.254671	4
104	189216	81.354673	4
104	189452	81.454662	4
104	189688	81.554664	4
104	189924	81.654666	4
104	190160	81.754668	4
104	190396	81.85467	4
104	190632	81.954672	4
104	190873	82.054661	4
104	191109	82.154663	4
104	191345	82.254665	4
104	191581	82.354667	4
104	191817	82.454669	4
104	192053	82.554671	4
104	192289	82.654673	4
104	192525	82.754662	4
104	192761	82.854664	4
104	192997	82.954666	4
104	193238	83.054668	4
104	193474	83.15467	4
104	193710	83.254672	4
104	193946	83.354661	4
104	194182	83.454663	4
104	194418	83.554665	4
104	194654	83.654667	4
104	194890	83.754669	4
104	195126	83.854671	4
104	195362	83.954673	4
104	195603	84.054662	4
104	195839	84.154664	4
104	196075	84.254666	4
104	196311	84.354668	4
104	196547	84.45467	4
104	196783	84.554672	4
104	197019	84.654661	4
104	197255	84.754663	4
104	197491	84.854665	4
104	197727	84.954667	4
104	197968	85.054669	4
104	198204	85.154671	4
104	198440	85.254673	4
104	198676	85.354662	4
104	198912	85.454664	4
104	199148	85.554666	4
104	199384	85.654668	4
104	199620	85.75467	4
104	199856	85.854672	4
104	200092	85.954661	4
104	200333	86.054663	4
104	200569	86.154665	4
104	200805	86.254667	4
104	201041	86.354669	4
104	201277	86.454671	4
104	201513	86.554673	4
104	201749	86.654662	4
104	201985	86.754664	4
104	202221	86.854666	4
104	202457	86.954668	4
104	202698	87.05467	4
104	202934	87.154672	4
104	203170	87.254661	4
104	203406	87.354663	4
104	203642	87.454665	4
104	203878	87.554667	4
104	204114	87.654669	4
104	204350	87.754671	4
104	204586	87.854673	4
104	204822	87.954662	4
104	205063	88.054664	4
104	205299	88.154666	4
104	205535	88.254668	4
104	205771	88.35467	4
104	206007	88.454672	4
104	206243	88.554661	4
104	206479	88.654663	4
104	206715	88.754665	4
104	206951	88.854667	4
104	207187	88.954669	4
104	207428	89.054671	4
104	207664	89.154673	4
104	207900	89.254662	4
104	208136	89.354664	4
104	208372	89.454666	4
104	208608	89.554668	4
104	208844	89.65467	4
104	209080	89.754672	4
104	209316	89.854661	4
104	209552	89.954663	4
104	209793	90.054665	4
104	210029	90.154667	4
104	210265	90.254669	4
104	210501	90.354671	4
104	210737	90.454673	4
104	210973	90.554662	4
104	211209	90.654664	4
104	211445	90.754666	4
104	211681	90.854668	4
104	211917	90.95467	4
104	212158	91.054672	4
104	212394	91.154661	4
104	212630	91.254663	4
104	212866	91.354665	4
104	213102	91.454667	4
104	213338	91.554669	4
104	213574	91.654671	4
104	213810	91.754673	4
104	214046	91.854662	4
104	214282	91.954664	4
104	214523	92.054666	4
104	214759	92.154668	4
104	214995	92.25467	4
104	215231	92.354672	4
104	215467	92.454661	4
104	215703	92.554663	4
104	215939	92.654665	4
104	216175	92.754667	4
104	216411	92.854669	4
104	216647	92.954671	4
104	216888	93.054673	4
104	217124	93.154662	4
104	217360	93.254664	4
104	217596	93.354666	4
104	217832	93.454668	4
104	218068	93.55467	4
104	218304	93.654672	4
104	218540	93.754661	4
104	218776	93.854663	4
104	219012	93.954665	4
104	219253	94.054667	4
104	219489	94.154669	4
104	219725	94.254671	4
104	219961	94.354673	4
104	220197	94.454662	4
104	220433	94.554664	4
104	220669	94.654666	4
104	220905	94.754668	4
104	221141	94.85467	4
104	221377	94.954672	4
104	221618	95.054661	4
104	221854	95.154663	4
104	222090	95.254665	4
104	222326	95.354667	4
104	222562	95.454669	4
104	222798	95.554671	4
104	223034	95.654673	4
104	223270	95.754662	4
104	223506	95.854664	4
104	223742	95.954666	4
104	223983	96.054668	4
104	224219	96.15467	4
104	224455	96.254672	4
104	224691	96.354661	4
104	224927	96.454663	4
104	225163	96.554665	4
104	225399	96.654667	4
104	225635	96.754669	4
104	225871	96.854671	4
104	226107	96.954673	4
104	226348	97.054662	4
104	226584	97.154664	4
104	226820	97.254666	4
104	227056	97.354668	4
104	227292	97.45467	4
104	227528	97.554672	4
104	227764	97.654661	4
104	228000	97.754663	4
104	228236	97.854665	4
104	228472	97.954667	4
104	228713	98.054669	4
104	228949	98.154671	4
104	229185	98.254673	4
104	229421	98.354662	4
104	229657	98.454664	4
104	229893	98.554666	4
104	230129	98.654668	4
104	230365	98.75467	4
104	230601	98.854672	4
104	230837	98.954661	4
104	231078	99.054663	4
104	231314	99.154665	4
104	231550	99.254667	4
104	231786	99.354669	4
104	232022	99.454671	4
104	232258	99.554673	4
104	232494	99.654662	4
104	232730	99.754664	4
104	232966	99.854666	4
104	233202	99.954668	4
104	233443	100.05467	4
104	233678	100.154672	4
104	233913	100.254661	4
104	234148	100.354663	4
104	234383	100.454665	4
104	234618	100.554667	4
104	234853	100.654669	4
104	235088	100.754671	4
104	235323	100.854673	4
104	235558	100.954662	4
104	235798	101.054664	4
104	236033	101.154666	4
104	236268	101.254668	4
104	236503	101.35467	4
104	236738	101.454672	4
104	236973	101.554661	4
104	237208	101.654663	4
104	237443	101.754665	4
104	237678	101.854667	4
104	237913	101.954669	4
104	238153	102.054671	4
104	238388	102.154673	4
104	238623	102.254662	4
104	238858	102.354664	4
104	239093	102.454666	4
104	239328	102.554668	4
104	239563	102.65467	4
104	239798	102.754672	4
104	240033	102.854661	4
104	240268	102.954663	4
104	240508	103.054665	4
104	240743	103.154667	4
104	240978	103.254669	4
104	241213	103.354671	4
104	241448	103.454673	4
104	241683	103.554662	4
104	241918	103.654664	4
104	242153	103.754666	4
104	242388	103.854668	4
104	242623	103.95467	4
104	242863	104.054672	4
104	243098	104.154661	4
104	243333	104.254663	4
104	243568	104.354665	4
104	243803	104.454667	4
104	244038	104.554669	4
104	244273	104.654671	4
104	244508	104.754673	4
104	244743	104.854662	4
104	244978	104.954664	4
104	245218	105.054666	4
104	245453	105.154668	4
104	245688	105.25467	4
104	245923	105.354672	4
104	246158	105.454661	4
104	246393	105.554663	4
104	246628	105.654665	4
104	246863	105.754667	4
104	247098	105.854669	4
104	247333	105.954671	4
104	247573	106.054673	4
104	247808	106.154662	4
104	248043	106.254664	4
104	248278	106.354666	4
104	248513	106.454668	4
104	248748	106.55467	4
104	248983	106.654672	4
104	249218	106.754661	4
104	249453	106.854663	4
104	249688	106.954665	4
104	249928	107.054667	4
104	250163	107.154669	4
104	250398	107.254671	4
104	250633	107.354673	4
104	250868	107.454662	4
104	251103	107.554664	4
104	251338	107.654666	4
104	251573	107.754668	4
104	251808	107.85467	4
104	252043	107.954672	4
104	252283	108.054661	4
104	252518	108.154663	4
104	252753	108.254665	4
104	252988	108.354667	4
104	253223	108.454669	4
104	253458	108.554671	4
104	253693	108.654673	4
104	253928	108.754662	4
104	254163	108.854664	4
104	254398	108.954666	4
104	254638	109.054668	4
104	254873	109.15467	4
104	255108	109.254672	4
104	255343	109.354661	4
104	255578	109.454663	4
104	255813	109.554665	4
104	256048	109.654667	4
104	256283	109.754669	4
104	256518	109.854671	4
104	256753	109.954673	4
104	256993	110.054662	4
104	257228	110.154664	4
104	257463	110.254666	4
104	257698	110.354668	4
104	257933	110.45467	4
104	258168	110.554672	4
104	258403	110.654661	4
104	258638	110.754663	4
104	258873	110.854665	4
104	259108	110.954667	4
104	259348	111.054669	4
104	259583	111.154671	4
104	259818	111.254673	4
104	260053	111.354662	4
104	260288	111.454664	4
104	260523	111.554666	4
104	260758	111.654668	4
104	260993	111.75467	4
104	261228	111.854672	4
104	261463	111.954661	4
104	261703	112.054663	4
104	261938	112.154665	4
104	262173	112.254667	4
104	262408	112.354669	4
104	262643	112.454671	4
104	262878	112.554673	4
104	263113	112.654662	4
104	263348	112.754664	4
104	263583	112.854666	4
104	263818	112.954668	4
104	264058	113.05467	4
104	264293	113.154672	4
104	264528	113.254661	4
104	264763	113.354663	4
104	264998	113.454665	4
104	265233	113.554667	4
104	265468	113.654669	4
104	265703	113.754671	4
104	265938	113.854673	4
104	266173	113.954662	4
104	266413	114.054664	4
104	266648	114.154666	4
104	266883	114.254668	4
104	267118	114.35467	4
104	267353	114.454672	4
104	267588	114.554661	4
104	267823	114.654663	4
104	268058	114.754665	4
104	268293	114.854667	4
104	268528	114.954669	4
104	268768	115.054671	4
104	269003	115.154673	4
104	269238	115.254662	4
104	269473	115.354664	4
104	269708	115.454666	4
104	269943	115.554668	4
104	270178	115.65467	4
104	270413	115.754672	4
104	270648	115.854661	4
104	270883	115.954663	4
104	271123	116.054665	4
104	271358	116.154667	4
104	271593	116.254669	4
104	271828	116.354671	4
104	272063	116.454673	4
104	272298	116.554662	4
104	272533	116.654664	4
104	272768	116.754666	4
104	273003	116.854668	4
104	273238	116.95467	4
104	273478	117.054672	4
104	273713	117.154661	4
104	273948	117.254663	4
104	274183	117.354665	4
104	274418	117.454667	4
104	274653	117.554669	4
104	274888	117.654671	4
104	275123	117.754673	4
104	275358	117.854662	4
104	275593	117.954664	4
104	275833	118.054666	4
104	276068	118.154668	4
104	276303	118.25467	4
104	276538	118.354672	4
104	276773	118.454661	4
104	277008	118.554663	4
104	277243	118.654665	4
104	277478	118.754667	4
104	277713	118.854669	4
104	277948	118.954671	4
104	278188	119.054673	4
104	278423	119.154662	4
104	278658	119.254664	4
104	278893	119.354666	4
104	279128	119.454668	4
104	279363	119.55467	4
104	279598	119.654672	4
104	279833	119.754661	4
104	280068	119.854663	4
104	280303	119.954665	4
103	5550	4	0
103	7905	5	0
103	10260	6	0
103	12615	7	0
103	14970	8	0
103	17325	9	0
103	19680	10	0
103	22035	11	0
103	24390	12	0
103	26745	13	0
103	29435	14	0
103	31790	15	0
103	34145	16	0
103	36500	17	0
103	38855	18	0
103	41210	19	0
103	43565	20	0
103	45920	21	0
103	48275	22	0
103	50630	23	0
103	52985	24	0
103	55340	25	0
103	57695	26	0
103	60050	27	0
103	62405	28	0
103	64760	29	0
103	67115	30	0
103	69470	31	0
103	71825	32	0
103	74180	33	0
103	76535	34	0
103	78890	35	0
103	81245	36	0
103	83600	37	0
103	85955	38	0
103	88310	39	0
103	90665	40	0
103	93020	41	0
103	95375	42	0
103	97730	43	0
103	100085	44	0
103	103283	45	0
103	105638	46	0
103	107993	47	0
103	110348	48	0
103	112703	49	0
103	115058	50	0
103	117413	51	0
103	119768	52	0
103	122123	53	0
103	124478	54	0
103	126834	55	0
103	129198	56	0
103	131563	57	0
103	133928	58	0
103	136293	59	0
103	138658	60	0
103	141023	61	0
103	143388	62	0
103	145753	63	0
103	148118	64	0
103	150483	65	0
103	152848	66	0
103	155213	67	0
103	157578	68	0
103	159943	69	0
103	162308	70	0
103	164673	71	0
103	167038	72	0
103	169403	73	0
103	171768	74	0
103	174133	75	0
103	176498	76	0
103	178863	77	0
103	181228	78	0
103	183593	79	0
103	185958	80	0
103	188323	81	0
103	190688	82	0
103	193053	83	0
103	195418	84	0
103	197783	85	0
103	200148	86	0
103	202513	87	0
103	204878	88	0
103	207243	89	0
103	209608	90	0
103	211973	91	0
103	214338	92	0
103	216703	93	0
103	219068	94	0
103	221433	95	0
103	223798	96	0
103	226163	97	0
103	228528	98	0
103	230893	99	0
103	233259	100	0
103	235614	101	0
103	237969	102	0
103	240324	103	0
103	242679	104	0
103	245034	105	0
103	247389	106	0
103	249744	107	0
103	252099	108	0
103	254454	109	0
103	256809	110	0
103	259164	111	0
103	261519	112	0
103	263874	113	0
103	266229	114	0
103	268584	115	0
103	270939	116	0
103	273294	117	0
103	275649	118	0
103	278004	119	0
103	280359	120	0
102	5550	4	0.023817
102	7905	5	0.02481
102	10260	6	0.02481
102	12615	7	0.02481
102	14970	8	0.02481
102	17325	9	0.02481
102	19680	10	0.02481
102	22035	11	0.02481
102	24390	12	0.02481
102	26745	13	0.02481
102	29435	14	0.027135
102	31790	15	0.02481
102	34145	16	0.02481
102	36500	17	0.02481
102	38855	18	0.02481
102	41210	19	0.02481
102	43565	20	0.02481
102	45920	21	0.02481
102	48275	22	0.02481
102	50630	23	0.02481
102	52985	24	0.02481
102	55340	25	0.02481
102	57695	26	0.02481
102	60050	27	0.02481
102	62405	28	0.02481
102	64760	29	0.02481
102	67115	30	0.02481
102	69470	31	0.02481
102	71825	32	0.02481
102	74180	33	0.02481
102	76535	34	0.02481
102	78890	35	0.02481
102	81245	36	0.02481
102	83600	37	0.02481
102	85955	38	0.02481
102	88310	39	0.02481
102	90665	40	0.02481
102	93020	41	0.02481
102	95375	42	0.02481
102	97730	43	0.02481
102	100085	44	0.02481
102	103283	45	0.030385
102	105638	46	0.02481
102	107993	47	0.02481
102	110348	48	0.02481
102	112703	49	0.02481
102	115058	50	0.02481
102	117413	51	0.02481
102	119768	52	0.02481
102	122123	53	0.02481
102	124478	54	0.02481
102	126834	55	0.02481
102	129198	56	0.02481
102	131563	57	0.02481
102	133928	58	0.02481
102	136293	59	0.02481
102	138658	60	0.02481
102	141023	61	0.02481
102	143388	62	0.02481
102	145753	63	0.02481
102	148118	64	0.02481
102	150483	65	0.02481
102	152848	66	0.02481
102	155213	67	0.02481
102	157578	68	0.02481
102	159943	69	0.02481
102	162308	70	0.02481
102	164673	71	0.02481
102	167038	72	0.02481
102	169403	73	0.02481
102	171768	74	0.02481
102	174133	75	0.02481
102	176498	76	0.02481
102	178863	77	0.02481
102	181228	78	0.02481
102	183593	79	0.02481
102	185958	80	0.02481
102	188323	81	0.02481
102	190688	82	0.02481
102	193053	83	0.02481
102	195418	84	0.02481
102	197783	85	0.02481
102	200148	86	0.02481
102	202513	87	0.02481
102	204878	88	0.02481
102	207243	89	0.02481
102	209608	90	0.02481
102	211973	91	0.02481
102	214338	92	0.02481
102	216703	93	0.02481
102	219068	94	0.02481
102	221433	95	0.02481
102	223798	96	0.02481
102	226163	97	0.02481
102	228528	98	0.02481
102	230893	99	0.02481
102	233259	100	0.02481
102	235614	101	0.02481
102	237969	102	0.02481
102	240324	103	0.02481
102	242679	104	0.02481
102	245034	105	0.02481
102	247389	106	0.02481
102	249744	107	0.02481
102	252099	108	0.02481
102	254454	109	0.02481
102	256809	110	0.02481
102	259164	111	0.02481
102	261519	112	0.02481
102	263874	113	0.02481
102	266229	114	0.02481
102	268584	115	0.02481
102	270939	116	0.02481
102	273294	117	0.02481
102	275649	118	0.02481
102	278004	119	0.02481
102	280359	120	0.02481
101	5550	4	4
101	7905	5	4
101	10260	6	4
101	12615	7	4
101	14970	8	4
101	17325	9	4
101	19680	10	4
101	22035	11	4
101	24390	12	4
101	26745	13	4
101	29435	14	4
101	31790	15	4
101	34145	16	4
101	36500	17	4
101	38855	18	4
101	41210	19	4
101	43565	20	4
101	45920	21	4
101	48275	22	4
101	50630	23	4
101	52985	24	4
101	55340	25	4
101	57695	26	4
101	60050	27	4
101	62405	28	4
101	64760	29	4
101	67115	30	4
101	69470	31	4
101	71825	32	4
101	74180	33	4
101	76535	34	4
101	78890	35	4
101	81245	36	4
101	83600	37	4
101	85955	38	4
101	88310	39	4
101	90665	40	4
101	93020	41	4
101	95375	42	4
101	97730	43	4
101	100085	44	4
101	103283	45	4
101	105638	46	4
101	107993	47	4
101	110348	48	4
101	112703	49	4
101	115058	50	4
101	117413	51	4
101	119768	52	4
101	122123	53	4
101	124478	54	4
101	126834	55	4
101	129198	56	4
101	131563	57	4
101	133928	58	4
101	136293	59	4
101	138658	60	4
101	141023	61	4
101	143388	62	4
101	145753	63	4
101	148118	64	4
101	150483	65	4
101	152848	66	4
101	155213	67	4
101	157578	68	4
101	159943	69	4
101	162308	70	4
101	164673	71	4
101	167038	72	4
101	169403	73	4
101	171768	74	4
101	174133	75	4
101	176498	76	4
101	178863	77	4
101	181228	78	4
101	183593	79	4
101	185958	80	4
101	188323	81	4
101	190688	82	4
101	193053	83	4
101	195418	84	4
101	197783	85	4
101	200148	86	4
101	202513	87	4
101	204878	88	4
101	207243	89	4
101	209608	90	4
101	211973	91	4
101	214338	92	4
101	216703	93	4
101	219068	94	4
101	221433	95	4
101	223798	96	4
101	226163	97	4
101	228528	98	4
101	230893	99	4
101	233259	100	4
101	235614	101	4
101	237969	102	4
101	240324	103	4
101	242679	104	4
101	245034	105	4
101	247389	106	4
101	249744	107	4
101	252099	108	4
101	254454	109	4
101	256809	110	4
101	259164	111	4
101	261519	112	4
101	263874	113	4
101	266229	114	4
101	268584	115	4
101	270939	116	4
101	273294	117	4
101	275649	118	4
101	278004	119	4
101	280359	120	4
